3jvs_ligand_rnum.pdb
 OpenBabel02151809393D

 52 54  0  0  0  0  0  0  0  0999 V2000
   33.9930   -2.1240   17.6380 C   0  0  0  0  0  0  0  0  0  0  0  0
   31.4940   -2.4220   17.7810 N   0  0  0  0  0  0  0  0  0  0  0  0
   31.3890   -3.6210   15.8520 O   0  0  0  0  0  0  0  0  0  0  0  0
   32.6240   -1.6310   17.5880 C   0  0  0  0  0  0  0  0  0  0  0  0
   29.7930   -4.0180   17.3470 N   0  0  0  0  0  0  0  0  0  0  0  0
   30.4340   -5.4590   19.4010 O   0  0  0  0  0  0  0  0  0  0  0  0
   35.1360   -1.1870   17.4150 C   0  0  0  0  0  0  0  0  0  0  0  0
   29.1370   -3.8040   18.6060 N   0  0  0  0  0  0  0  0  0  0  0  0
   24.8190   -4.7610   22.6990 O   0  0  0  0  0  0  0  0  0  0  0  0
   34.2740   -3.5170   17.9020 C   0  0  0  0  0  0  0  0  0  0  0  0
   25.6450   -3.8090   22.3680 N   0  3  0  0  0  0  0  0  0  0  0  0
   25.1680   -2.5480   22.0310 O   0  5  0  0  0  0  0  0  0  0  0  0
   32.4120   -0.2110   17.3180 C   0  0  0  0  0  0  0  0  0  0  0  0
   34.8990    0.2110   17.1500 C   0  0  0  0  0  0  0  0  0  0  0  0
   36.4760   -1.6760   17.4650 C   0  0  0  0  0  0  0  0  0  0  0  0
   35.6370   -3.9930   17.9490 C   0  0  0  0  0  0  0  0  0  0  0  0
   33.5260    0.7020   17.1010 C   0  0  0  0  0  0  0  0  0  0  0  0
   30.9160   -3.3510   16.9640 C   0  0  0  0  0  0  0  0  0  0  0  0
   36.7350   -3.0780   17.7320 C   0  0  0  0  0  0  0  0  0  0  0  0
   29.5470   -4.6110   19.6220 C   0  0  0  0  0  0  0  0  0  0  0  0
   28.9510   -4.4900   20.9510 C   0  0  0  0  0  0  0  0  0  0  0  0
   27.5800   -4.1810   21.0710 C   0  0  0  0  0  0  0  0  0  0  0  0
   29.7350   -4.6820   22.1300 C   0  0  0  0  0  0  0  0  0  0  0  0
   26.9430   -4.0570   22.3480 C   0  0  0  0  0  0  0  0  0  0  0  0
   29.1390   -4.5650   23.4400 C   0  0  0  0  0  0  0  0  0  0  0  0
   27.7090   -4.2430   23.5950 C   0  0  0  0  0  0  0  0  0  0  0  0
   27.1220   -4.1330   25.0240 C   0  0  0  0  0  0  0  0  0  0  0  0
   28.0260   -3.3630   26.0170 C   0  0  0  0  0  0  0  0  0  0  0  0
   25.7950   -3.3270   25.2910 C   0  0  0  0  0  0  0  0  0  0  0  0
   26.8120   -5.5700   25.4860 C   0  0  0  0  0  0  0  0  0  0  0  0
   30.9810   -2.2220   18.6300 H   0  0  0  0  0  0  0  0  0  0  0  0
   29.3180   -4.7100   16.7860 H   0  0  0  0  0  0  0  0  0  0  0  0
   28.4340   -3.0750   18.6060 H   0  0  0  0  0  0  0  0  0  0  0  0
   33.4700   -4.2180   18.0720 H   0  0  0  0  0  0  0  0  0  0  0  0
   31.4130    0.1880   17.3060 H   0  0  0  0  0  0  0  0  0  0  0  0
   35.7240    0.8910   16.9970 H   0  0  0  0  0  0  0  0  0  0  0  0
   37.3060   -1.0010   17.3130 H   0  0  0  0  0  0  0  0  0  0  0  0
   35.8360   -5.0350   18.1510 H   0  0  0  0  0  0  0  0  0  0  0  0
   33.3340    1.7480   16.9150 H   0  0  0  0  0  0  0  0  0  0  0  0
   37.7520   -3.4380   17.7750 H   0  0  0  0  0  0  0  0  0  0  0  0
   26.9830   -4.0360   20.1860 H   0  0  0  0  0  0  0  0  0  0  0  0
   30.7780   -4.7960   22.0850 H   0  0  0  0  0  0  0  0  0  0  0  0
   29.7740   -4.7050   24.3010 H   0  0  0  0  0  0  0  0  0  0  0  0
   27.6150   -3.3210   27.0230 H   0  0  0  0  0  0  0  0  0  0  0  0
   28.9880   -3.8580   26.1020 H   0  0  0  0  0  0  0  0  0  0  0  0
   28.2090   -2.3400   25.6860 H   0  0  0  0  0  0  0  0  0  0  0  0
   25.5960   -3.1280   26.3400 H   0  0  0  0  0  0  0  0  0  0  0  0
   25.8230   -2.3620   24.7860 H   0  0  0  0  0  0  0  0  0  0  0  0
   24.9120   -3.8510   24.9370 H   0  0  0  0  0  0  0  0  0  0  0  0
   26.4360   -5.6410   26.4970 H   0  0  0  0  0  0  0  0  0  0  0  0
   26.0750   -6.0430   24.8360 H   0  0  0  0  0  0  0  0  0  0  0  0
   27.7110   -6.1870   25.4510 H   0  0  0  0  0  0  0  0  0  0  0  0
  1 10  1  0  0  0  0
  2 31  1  0  0  0  0
  3 18  2  0  0  0  0
  4  1  1  0  0  0  0
  4  2  1  0  0  0  0
  5  8  1  0  0  0  0
  6 20  2  0  0  0  0
  7 15  1  0  0  0  0
  7  1  2  0  0  0  0
  8 33  1  0  0  0  0
  8 20  1  0  0  0  0
 10 16  2  0  0  0  0
 10 34  1  0  0  0  0
 11  9  2  0  0  0  0
 12 11  2  0  0  0  0
 13  4  2  0  0  0  0
 14  7  1  0  0  0  0
 15 19  2  0  0  0  0
 16 38  1  0  0  0  0
 17 14  2  0  0  0  0
 17 13  1  0  0  0  0
 18  5  1  0  0  0  0
 18  2  1  0  0  0  0
 19 40  1  0  0  0  0
 19 16  1  0  0  0  0
 20 21  1  0  0  0  0
 21 22  2  0  0  0  0
 21 23  1  0  0  0  0
 22 24  1  0  0  0  0
 23 25  2  0  0  0  0
 24 11  1  0  0  0  0
 24 26  2  0  0  0  0
 25 26  1  0  0  0  0
 25 43  1  0  0  0  0
 26 27  1  0  0  0  0
 27 29  1  0  0  0  0
 27 30  1  0  0  0  0
 27 28  1  0  0  0  0
 28 45  1  0  0  0  0
 28 44  1  0  0  0  0
 29 47  1  0  0  0  0
 30 50  1  0  0  0  0
 32  5  1  0  0  0  0
 35 13  1  0  0  0  0
 36 14  1  0  0  0  0
 37 15  1  0  0  0  0
 39 17  1  0  0  0  0
 41 22  1  0  0  0  0
 42 23  1  0  0  0  0
 46 28  1  0  0  0  0
 48 29  1  0  0  0  0
 49 29  1  0  0  0  0
 51 30  1  0  0  0  0
 52 30  1  0  0  0  0
M  CHG  2  11   1  12  -1
M  END
$$$$
