10gs_ligand_rnum.pdb
 OpenBabel02151809393D

 59 60  0  0  1  0  0  0  0  0999 V2000
   15.0880   10.7980   23.5470 N   0  3  0  0  0  0  0  0  0  0  0  0
   15.0100    9.9870   24.7920 C   0  0  2  0  0  0  0  0  0  0  0  0
   16.1150    8.9240   24.8300 C   0  0  0  0  0  0  0  0  0  0  0  0
   16.5200    8.5150   25.9400 O   0  0  0  0  0  0  0  0  0  0  0  0
   13.6350    9.3270   24.9080 C   0  0  0  0  0  0  0  0  0  0  0  0
   13.3940    8.7080   26.2710 C   0  0  0  0  0  0  0  0  0  0  0  0
   12.0450    8.0460   26.4020 C   0  0  0  0  0  0  0  0  0  0  0  0
   11.2930    7.9360   25.4350 O   0  0  0  0  0  0  0  0  0  0  0  0
   16.5780    8.5240   23.7440 O   0  5  0  0  0  0  0  0  0  0  0  0
   11.7260    7.6420   27.6280 N   0  0  0  0  0  0  0  0  0  0  0  0
   10.4720    6.9670   27.9340 C   0  0  1  0  0  0  0  0  0  0  0  0
   10.7260    5.4840   28.2060 C   0  0  0  0  0  0  0  0  0  0  0  0
   11.2910    4.5240   26.8100 S   0  0  0  0  0  0  0  0  0  0  0  0
    9.7290    3.8040   26.2620 C   0  0  0  0  0  0  0  0  0  0  0  0
    8.9300    3.1710   27.3700 C   0  0  0  0  0  0  0  0  0  0  0  0
    7.6400    3.6140   27.6500 C   0  0  0  0  0  0  0  0  0  0  0  0
    9.4640    2.1350   28.1330 C   0  0  0  0  0  0  0  0  0  0  0  0
    6.8930    3.0370   28.6730 C   0  0  0  0  0  0  0  0  0  0  0  0
    8.7230    1.5500   29.1610 C   0  0  0  0  0  0  0  0  0  0  0  0
    7.4370    2.0010   29.4300 C   0  0  0  0  0  0  0  0  0  0  0  0
    9.8340    7.5500   29.1800 C   0  0  0  0  0  0  0  0  0  0  0  0
   10.5220    8.0230   30.0840 O   0  0  0  0  0  0  0  0  0  0  0  0
    8.5120    7.4680   29.2290 N   0  0  0  0  0  0  0  0  0  0  0  0
    7.7400    7.9330   30.3660 C   0  0  2  0  0  0  0  0  0  0  0  0
    6.5550    7.0620   30.6330 C   0  0  0  0  0  0  0  0  0  0  0  0
    5.3300    7.3150   30.0270 C   0  0  0  0  0  0  0  0  0  0  0  0
    6.6830    5.9410   31.4410 C   0  0  0  0  0  0  0  0  0  0  0  0
    4.2500    6.4590   30.2200 C   0  0  0  0  0  0  0  0  0  0  0  0
    5.6110    5.0810   31.6400 C   0  0  0  0  0  0  0  0  0  0  0  0
    4.3920    5.3390   31.0270 C   0  0  0  0  0  0  0  0  0  0  0  0
    7.4520    9.4330   30.3540 C   0  0  0  0  0  0  0  0  0  0  0  0
    7.1160    9.9570   31.4330 O   0  0  0  0  0  0  0  0  0  0  0  0
    7.5690   10.0680   29.2840 O   0  5  0  0  0  0  0  0  0  0  0  0
   14.3760   11.5160   23.5430 H   0  0  0  0  0  0  0  0  0  0  0  0
   15.9970   11.2420   23.5120 H   0  0  0  0  0  0  0  0  0  0  0  0
   14.9800   10.1970   22.7430 H   0  0  0  0  0  0  0  0  0  0  0  0
   15.1550   10.6770   25.6250 H   0  0  0  0  0  0  0  0  0  0  0  0
   13.5210    8.5760   24.1240 H   0  0  0  0  0  0  0  0  0  0  0  0
   12.8670   10.0780   24.7190 H   0  0  0  0  0  0  0  0  0  0  0  0
   13.5090    9.4600   27.0530 H   0  0  0  0  0  0  0  0  0  0  0  0
   14.1170    7.9230   26.4800 H   0  0  0  0  0  0  0  0  0  0  0  0
   12.4070    7.7400   28.3710 H   0  0  0  0  0  0  0  0  0  0  0  0
    9.7510    7.0600   27.1190 H   0  0  0  0  0  0  0  0  0  0  0  0
    9.8720    5.0240   28.6970 H   0  0  0  0  0  0  0  0  0  0  0  0
   11.5270    5.4090   28.9430 H   0  0  0  0  0  0  0  0  0  0  0  0
    9.9340    3.0560   25.4960 H   0  0  0  0  0  0  0  0  0  0  0  0
    9.1440    4.5900   25.7830 H   0  0  0  0  0  0  0  0  0  0  0  0
    7.2060    4.4170   27.0730 H   0  0  0  0  0  0  0  0  0  0  0  0
   10.4640    1.7810   27.9320 H   0  0  0  0  0  0  0  0  0  0  0  0
    5.8950    3.3950   28.8830 H   0  0  0  0  0  0  0  0  0  0  0  0
    9.1460    0.7510   29.7520 H   0  0  0  0  0  0  0  0  0  0  0  0
    6.8620    1.5540   30.2280 H   0  0  0  0  0  0  0  0  0  0  0  0
    8.0060    7.0750   28.4490 H   0  0  0  0  0  0  0  0  0  0  0  0
    8.3780    7.8240   31.2460 H   0  0  0  0  0  0  0  0  0  0  0  0
    5.2050    8.1710   29.3800 H   0  0  0  0  0  0  0  0  0  0  0  0
    7.6200    5.7200   31.9020 H   0  0  0  0  0  0  0  0  0  0  0  0
    3.3040    6.6640   29.7400 H   0  0  0  0  0  0  0  0  0  0  0  0
    5.7280    4.2090   32.2670 H   0  0  0  0  0  0  0  0  0  0  0  0
    3.5580    4.6700   31.1780 H   0  0  0  0  0  0  0  0  0  0  0  0
  1  2  1  0  0  0  0
  2  3  1  0  0  0  0
  2  5  1  0  0  0  0
  2 37  1  1  0  0  0
  3  4  1  0  0  0  0
  5  6  1  0  0  0  0
  6  7  1  0  0  0  0
  6 41  1  0  0  0  0
  6 40  1  0  0  0  0
  7 10  1  0  0  0  0
  8  7  2  0  0  0  0
  9  3  2  0  0  0  0
 10 11  1  0  0  0  0
 10 42  1  0  0  0  0
 11 43  1  6  0  0  0
 11 12  1  0  0  0  0
 11 21  1  0  0  0  0
 12 44  1  0  0  0  0
 12 45  1  0  0  0  0
 13 12  1  0  0  0  0
 14 13  1  0  0  0  0
 14 15  1  0  0  0  0
 15 16  2  0  0  0  0
 15 17  1  0  0  0  0
 16 18  1  0  0  0  0
 17 19  2  0  0  0  0
 18 50  1  0  0  0  0
 18 20  2  0  0  0  0
 19 20  1  0  0  0  0
 19 51  1  0  0  0  0
 20 52  1  0  0  0  0
 21 23  1  0  0  0  0
 21 22  2  0  0  0  0
 23 24  1  0  0  0  0
 24 25  1  0  0  0  0
 24 54  1  1  0  0  0
 25 27  2  0  0  0  0
 26 28  2  0  0  0  0
 26 25  1  0  0  0  0
 27 29  1  0  0  0  0
 27 56  1  0  0  0  0
 28 30  1  0  0  0  0
 29 58  1  0  0  0  0
 30 59  1  0  0  0  0
 30 29  2  0  0  0  0
 31 24  1  0  0  0  0
 31 32  1  0  0  0  0
 33 31  2  0  0  0  0
 34  1  1  0  0  0  0
 35  1  1  0  0  0  0
 36  1  1  0  0  0  0
 38  5  1  0  0  0  0
 39  5  1  0  0  0  0
 46 14  1  0  0  0  0
 47 14  1  0  0  0  0
 48 16  1  0  0  0  0
 49 17  1  0  0  0  0
 53 23  1  0  0  0  0
 55 26  1  0  0  0  0
 57 28  1  0  0  0  0
M  CHG  3   1   1   9  -1  33  -1
M  END
$$$$
