2yfe_ligand_rnum.pdb
 OpenBabel02151809393D

 48 49  0  0  0  0  0  0  0  0999 V2000
   18.6640   17.5110   44.2480 C   0  0  0  0  0  0  0  0  0  0  0  0
   17.1790   17.8100   44.5240 C   0  0  0  0  0  0  0  0  0  0  0  0
   16.2080   17.7330   43.3220 C   0  0  0  0  0  0  0  0  0  0  0  0
   16.6600   18.1180   45.8000 C   0  0  0  0  0  0  0  0  0  0  0  0
   17.2270   18.2660   47.0780 C   0  0  0  0  0  0  0  0  0  0  0  0
   16.9040   19.6930   47.6090 C   0  0  0  0  0  0  0  0  0  0  0  0
   15.5970   20.1680   47.7370 C   0  0  0  0  0  0  0  0  0  0  0  0
   15.3210   21.4570   48.1940 C   0  0  0  0  0  0  0  0  0  0  0  0
   14.5520   19.3570   47.4130 O   0  0  0  0  0  0  0  0  0  0  0  0
   13.4130   19.6300   48.2760 C   0  0  0  0  0  0  0  0  0  0  0  0
   17.9230   20.5690   47.9840 C   0  0  0  0  0  0  0  0  0  0  0  0
   19.2160   20.1590   47.8900 O   0  0  0  0  0  0  0  0  0  0  0  0
   17.6630   21.8630   48.4410 C   0  0  0  0  0  0  0  0  0  0  0  0
   18.8620   22.7510   48.8280 C   0  0  0  0  0  0  0  0  0  0  0  0
   19.9900   22.2040   48.8470 O   0  0  0  0  0  0  0  0  0  0  0  0
   18.6550   23.9480   49.1340 O   0  5  0  0  0  0  0  0  0  0  0  0
   16.3410   22.3180   48.5690 C   0  0  0  0  0  0  0  0  0  0  0  0
   15.9040   23.7170   49.0390 C   0  0  0  0  0  0  0  0  0  0  0  0
   15.7120   23.8370   50.5400 C   0  0  0  0  0  0  0  0  0  0  0  0
   15.1980   25.2300   50.9540 C   0  0  0  0  0  0  0  0  0  0  0  0
   14.8020   26.1750   50.0090 C   0  0  0  0  0  0  0  0  0  0  0  0
   14.3350   27.4320   50.4130 C   0  0  0  0  0  0  0  0  0  0  0  0
   14.2700   27.7410   51.7710 C   0  0  0  0  0  0  0  0  0  0  0  0
   14.6670   26.7950   52.7280 C   0  0  0  0  0  0  0  0  0  0  0  0
   15.1300   25.5470   52.3130 C   0  0  0  0  0  0  0  0  0  0  0  0
   19.2930   17.6320   45.1280 H   0  0  0  0  0  0  0  0  0  0  0  0
   18.7800   16.4950   43.8720 H   0  0  0  0  0  0  0  0  0  0  0  0
   19.0180   18.1810   43.4670 H   0  0  0  0  0  0  0  0  0  0  0  0
   15.1670   17.6990   43.6400 H   0  0  0  0  0  0  0  0  0  0  0  0
   16.3540   18.5880   42.6630 H   0  0  0  0  0  0  0  0  0  0  0  0
   16.4010   16.8270   42.7480 H   0  0  0  0  0  0  0  0  0  0  0  0
   15.5930   18.2500   45.7770 H   0  0  0  0  0  0  0  0  0  0  0  0
   18.2930   18.0510   47.0590 H   0  0  0  0  0  0  0  0  0  0  0  0
   16.7760   17.5350   47.7500 H   0  0  0  0  0  0  0  0  0  0  0  0
   14.3200   21.8540   48.2470 H   0  0  0  0  0  0  0  0  0  0  0  0
   12.7820   18.7420   48.2750 H   0  0  0  0  0  0  0  0  0  0  0  0
   13.6720   19.8080   49.3230 H   0  0  0  0  0  0  0  0  0  0  0  0
   12.7870   20.4370   47.8930 H   0  0  0  0  0  0  0  0  0  0  0  0
   19.7810   20.8610   48.2090 H   0  0  0  0  0  0  0  0  0  0  0  0
   14.9340   23.8880   48.5710 H   0  0  0  0  0  0  0  0  0  0  0  0
   16.5120   24.5100   48.6130 H   0  0  0  0  0  0  0  0  0  0  0  0
   16.6650   23.6560   51.0300 H   0  0  0  0  0  0  0  0  0  0  0  0
   15.0150   23.0740   50.8810 H   0  0  0  0  0  0  0  0  0  0  0  0
   14.8570   26.0000   48.9480 H   0  0  0  0  0  0  0  0  0  0  0  0
   14.0400   28.1640   49.6770 H   0  0  0  0  0  0  0  0  0  0  0  0
   13.9140   28.7100   52.0880 H   0  0  0  0  0  0  0  0  0  0  0  0
   14.6160   27.0340   53.7800 H   0  0  0  0  0  0  0  0  0  0  0  0
   15.4370   24.8210   53.0520 H   0  0  0  0  0  0  0  0  0  0  0  0
  1  2  1  0  0  0  0
  1 26  1  0  0  0  0
  2  4  2  0  0  0  0
  3 29  1  0  0  0  0
  3  2  1  0  0  0  0
  4  5  1  0  0  0  0
  5  6  1  0  0  0  0
  5 34  1  0  0  0  0
  6  7  2  0  0  0  0
  6 11  1  0  0  0  0
  7  8  1  0  0  0  0
  8 35  1  0  0  0  0
  8 17  2  0  0  0  0
  9  7  1  0  0  0  0
  9 10  1  0  0  0  0
 10 37  1  0  0  0  0
 11 13  2  0  0  0  0
 12 11  1  0  0  0  0
 12 39  1  0  0  0  0
 13 17  1  0  0  0  0
 13 14  1  0  0  0  0
 14 15  2  0  0  0  0
 14 16  1  0  0  0  0
 17 18  1  0  0  0  0
 18 19  1  0  0  0  0
 19 43  1  0  0  0  0
 19 20  1  0  0  0  0
 19 42  1  0  0  0  0
 20 25  2  0  0  0  0
 21 22  2  0  0  0  0
 21 20  1  0  0  0  0
 22 23  1  0  0  0  0
 23 46  1  0  0  0  0
 23 24  2  0  0  0  0
 24 47  1  0  0  0  0
 25 24  1  0  0  0  0
 25 48  1  0  0  0  0
 27  1  1  0  0  0  0
 28  1  1  0  0  0  0
 30  3  1  0  0  0  0
 31  3  1  0  0  0  0
 32  4  1  0  0  0  0
 33  5  1  0  0  0  0
 36 10  1  0  0  0  0
 38 10  1  0  0  0  0
 40 18  1  0  0  0  0
 41 18  1  0  0  0  0
 44 21  1  0  0  0  0
 45 22  1  0  0  0  0
M  CHG  1  16  -1
M  END
$$$$
