2wtv_ligand_rnum.pdb
 OpenBabel02151809393D

 48 52  0  0  0  0  0  0  0  0999 V2000
    0.2390   -8.1290   -4.3300 C   0  0  0  0  0  0  0  0  0  0  0  0
    1.5590  -10.1680   -4.3770 C   0  0  0  0  0  0  0  0  0  0  0  0
    1.0890  -12.5210   -5.1880 C   0  0  0  0  0  0  0  0  0  0  0  0
    1.7190  -14.4680   -3.8830 C   0  0  0  0  0  0  0  0  0  0  0  0
    2.2810  -13.6300   -2.9140 C   0  0  0  0  0  0  0  0  0  0  0  0
    2.2390  -12.2390   -3.0830 C   0  0  0  0  0  0  0  0  0  0  0  0
    2.9340   -9.5980   -4.6240 C   0  0  0  0  0  0  0  0  0  0  0  0
    5.0930   -9.7350   -5.6530 C   0  0  0  0  0  0  0  0  0  0  0  0
    5.4760   -8.5410   -5.0110 C   0  0  0  0  0  0  0  0  0  0  0  0
    9.5690   -4.9640   -0.1350 O   0  0  0  0  0  0  0  0  0  0  0  0
    8.7770   -4.1540    0.2010 C   0  0  0  0  0  0  0  0  0  0  0  0
    9.1800   -2.9230    0.7240 O   0  5  0  0  0  0  0  0  0  0  0  0
    7.3020   -4.4660    0.0580 C   0  0  0  0  0  0  0  0  0  0  0  0
    6.9150   -5.6960   -0.4810 C   0  0  0  0  0  0  0  0  0  0  0  0
    5.5550   -5.9820   -0.6070 C   0  0  0  0  0  0  0  0  0  0  0  0
    4.6090   -5.0330   -0.1950 C   0  0  0  0  0  0  0  0  0  0  0  0
    3.2160   -5.3050   -0.4440 N   0  0  0  0  0  0  0  0  0  0  0  0
    2.4760   -6.0720   -1.4070 C   0  0  0  0  0  0  0  0  0  0  0  0
    1.1010   -5.9200   -1.4820 N   0  0  0  0  0  0  0  0  0  0  0  0
    0.4110   -6.6000   -2.4270 C   0  0  0  0  0  0  0  0  0  0  0  0
    1.0880   -7.4230   -3.2650 C   0  0  0  0  0  0  0  0  0  0  0  0
    0.4600   -9.5510   -4.2780 N   0  0  0  0  0  0  0  0  0  0  0  0
    1.6450  -11.6800   -4.2210 C   0  0  0  0  0  0  0  0  0  0  0  0
    0.5450  -11.9900   -6.3170 F   0  0  0  0  0  0  0  0  0  0  0  0
    1.1230  -13.9090   -5.0180 C   0  0  0  0  0  0  0  0  0  0  0  0
    2.8150  -11.4270   -2.1510 F   0  0  0  0  0  0  0  0  0  0  0  0
    3.8160  -10.2700   -5.4520 C   0  0  0  0  0  0  0  0  0  0  0  0
    6.1860  -10.5820   -6.7780 Cl  0  0  0  0  0  0  0  0  0  0  0  0
    4.5820   -7.8700   -4.1700 C   0  0  0  0  0  0  0  0  0  0  0  0
    3.3080   -8.4120   -3.9780 C   0  0  0  0  0  0  0  0  0  0  0  0
    2.4830   -7.5850   -3.1770 C   0  0  0  0  0  0  0  0  0  0  0  0
    3.1740   -6.9130   -2.2750 N   0  0  0  0  0  0  0  0  0  0  0  0
    4.9960   -3.8040    0.3330 C   0  0  0  0  0  0  0  0  0  0  0  0
    6.3570   -3.5220    0.4630 C   0  0  0  0  0  0  0  0  0  0  0  0
    0.5520   -7.7510   -5.3050 H   0  0  0  0  0  0  0  0  0  0  0  0
   -0.8180   -7.8930   -4.2750 H   0  0  0  0  0  0  0  0  0  0  0  0
    1.7700  -15.5320   -3.7290 H   0  0  0  0  0  0  0  0  0  0  0  0
    2.7490  -14.0550   -2.0370 H   0  0  0  0  0  0  0  0  0  0  0  0
    6.4600   -8.1330   -5.1820 H   0  0  0  0  0  0  0  0  0  0  0  0
    7.6430   -6.4330   -0.7910 H   0  0  0  0  0  0  0  0  0  0  0  0
    5.2720   -6.9430   -1.0060 H   0  0  0  0  0  0  0  0  0  0  0  0
    2.6170   -4.7020    0.1050 H   0  0  0  0  0  0  0  0  0  0  0  0
   -0.6500   -6.4650   -2.4610 H   0  0  0  0  0  0  0  0  0  0  0  0
    0.7110  -14.5500   -5.7800 H   0  0  0  0  0  0  0  0  0  0  0  0
    3.5360  -11.1740   -5.9690 H   0  0  0  0  0  0  0  0  0  0  0  0
    4.9400   -6.9420   -3.7530 H   0  0  0  0  0  0  0  0  0  0  0  0
    4.2540   -3.1070    0.6850 H   0  0  0  0  0  0  0  0  0  0  0  0
    6.6630   -2.5790    0.8920 H   0  0  0  0  0  0  0  0  0  0  0  0
  1 22  1  0  0  0  0
  1 36  1  0  0  0  0
  1 21  1  0  0  0  0
  2 22  2  0  0  0  0
  2 23  1  0  0  0  0
  3 25  2  0  0  0  0
  3 23  1  0  0  0  0
  4 37  1  0  0  0  0
  4  5  2  0  0  0  0
  5 38  1  0  0  0  0
  6  5  1  0  0  0  0
  6 26  1  0  0  0  0
  7  2  1  0  0  0  0
  7 30  2  0  0  0  0
  8 27  2  0  0  0  0
  8  9  1  0  0  0  0
  9 29  2  0  0  0  0
 10 11  2  0  0  0  0
 11 12  1  0  0  0  0
 13 11  1  0  0  0  0
 13 34  2  0  0  0  0
 14 13  1  0  0  0  0
 15 14  2  0  0  0  0
 15 16  1  0  0  0  0
 16 33  2  0  0  0  0
 17 16  1  0  0  0  0
 17 42  1  0  0  0  0
 18 17  1  0  0  0  0
 19 18  2  0  0  0  0
 20 19  1  0  0  0  0
 21 31  1  0  0  0  0
 21 20  2  0  0  0  0
 23  6  2  0  0  0  0
 24  3  1  0  0  0  0
 25  4  1  0  0  0  0
 27  7  1  0  0  0  0
 28  8  1  0  0  0  0
 29 30  1  0  0  0  0
 29 46  1  0  0  0  0
 30 31  1  0  0  0  0
 31 32  2  0  0  0  0
 32 18  1  0  0  0  0
 33 34  1  0  0  0  0
 33 47  1  0  0  0  0
 34 48  1  0  0  0  0
 35  1  1  0  0  0  0
 39  9  1  0  0  0  0
 40 14  1  0  0  0  0
 41 15  1  0  0  0  0
 43 20  1  0  0  0  0
 44 25  1  0  0  0  0
 45 27  1  0  0  0  0
M  CHG  1  12  -1
M  END
$$$$
