3f3a_ligand_rnum.pdb
 OpenBabel02151809393D

 27 28  0  0  1  0  0  0  0  0999 V2000
  -25.1770   -3.4330  -19.1820 N   0  3  0  0  0  0  0  0  0  0  0  0
  -26.1580   -4.5040  -19.1190 C   0  0  2  0  0  0  0  0  0  0  0  0
  -25.7910   -5.5780  -18.0880 C   0  0  0  0  0  0  0  0  0  0  0  0
  -26.6200   -6.3700  -17.6510 O   0  0  0  0  0  0  0  0  0  0  0  0
  -26.2890   -5.1750  -20.4970 C   0  0  0  0  0  0  0  0  0  0  0  0
  -26.6810   -4.2690  -21.6110 C   0  0  0  0  0  0  0  0  0  0  0  0
  -25.8810   -3.8350  -22.6350 C   0  0  0  0  0  0  0  0  0  0  0  0
  -27.9760   -3.6980  -21.8440 C   0  0  0  0  0  0  0  0  0  0  0  0
  -26.5990   -3.0380  -23.4920 N   0  0  0  0  0  0  0  0  0  0  0  0
  -27.8880   -2.9390  -23.0400 C   0  0  0  0  0  0  0  0  0  0  0  0
  -29.2030   -3.7690  -21.1710 C   0  0  0  0  0  0  0  0  0  0  0  0
  -28.9740   -2.2400  -23.5720 C   0  0  0  0  0  0  0  0  0  0  0  0
  -30.2910   -3.0720  -21.6990 C   0  0  0  0  0  0  0  0  0  0  0  0
  -30.1660   -2.3180  -22.9010 C   0  0  0  0  0  0  0  0  0  0  0  0
  -24.6380   -5.7000  -17.6730 O   0  5  0  0  0  0  0  0  0  0  0  0
  -25.4620   -2.7250  -19.8450 H   0  0  0  0  0  0  0  0  0  0  0  0
  -25.0870   -3.0230  -18.2600 H   0  0  0  0  0  0  0  0  0  0  0  0
  -24.2850   -3.8170  -19.4600 H   0  0  0  0  0  0  0  0  0  0  0  0
  -27.1110   -4.0600  -18.8270 H   0  0  0  0  0  0  0  0  0  0  0  0
  -27.0230   -5.9810  -20.4580 H   0  0  0  0  0  0  0  0  0  0  0  0
  -25.3410   -5.6410  -20.7660 H   0  0  0  0  0  0  0  0  0  0  0  0
  -24.8450   -4.1110  -22.7600 H   0  0  0  0  0  0  0  0  0  0  0  0
  -26.2180   -2.6360  -24.3390 H   0  0  0  0  0  0  0  0  0  0  0  0
  -29.2980   -4.3330  -20.2550 H   0  0  0  0  0  0  0  0  0  0  0  0
  -28.8800   -1.6810  -24.4900 H   0  0  0  0  0  0  0  0  0  0  0  0
  -31.2340   -3.0620  -21.1890 H   0  0  0  0  0  0  0  0  0  0  0  0
  -31.0380   -1.8280  -23.2950 H   0  0  0  0  0  0  0  0  0  0  0  0
  1  2  1  0  0  0  0
  1 17  1  0  0  0  0
  2 19  1  1  0  0  0
  2  3  1  0  0  0  0
  3 15  2  0  0  0  0
  3  4  1  0  0  0  0
  5 20  1  0  0  0  0
  5  2  1  0  0  0  0
  6  5  1  0  0  0  0
  7  6  2  0  0  0  0
  8  6  1  0  0  0  0
  8 11  2  0  0  0  0
  9 10  1  0  0  0  0
  9  7  1  0  0  0  0
 10  8  1  0  0  0  0
 11 24  1  0  0  0  0
 12 10  2  0  0  0  0
 12 14  1  0  0  0  0
 13 26  1  0  0  0  0
 13 11  1  0  0  0  0
 14 13  2  0  0  0  0
 16  1  1  0  0  0  0
 18  1  1  0  0  0  0
 21  5  1  0  0  0  0
 22  7  1  0  0  0  0
 23  9  1  0  0  0  0
 25 12  1  0  0  0  0
 27 14  1  0  0  0  0
M  CHG  2   1   1  15  -1
M  END
$$$$
