4de1_ligand_rnum.pdb
 OpenBabel02151809393D

 33 36  0  0  0  0  0  0  0  0999 V2000
   -9.2120   55.4320   13.8030 O   0  0  0  0  0  0  0  0  0  0  0  0
   -8.8880   55.5960   12.6160 C   0  0  0  0  0  0  0  0  0  0  0  0
   -9.6930   56.5100   11.7420 C   0  0  0  0  0  0  0  0  0  0  0  0
  -10.7160   57.2500   12.3480 C   0  0  0  0  0  0  0  0  0  0  0  0
  -11.4270   58.1590   11.5830 C   0  0  0  0  0  0  0  0  0  0  0  0
  -12.5210   59.0220   11.9410 C   0  0  0  0  0  0  0  0  0  0  0  0
  -12.8350   59.6840   10.8070 N   0  0  0  0  0  0  0  0  0  0  0  0
  -11.9970   59.2600    9.7730 N   0  0  0  0  0  0  0  0  0  0  0  0
  -11.1310   58.3200   10.2380 C   0  0  0  0  0  0  0  0  0  0  0  0
  -10.1190   57.5960    9.6180 C   0  0  0  0  0  0  0  0  0  0  0  0
   -9.3780   56.7000   10.3770 C   0  0  0  0  0  0  0  0  0  0  0  0
   -7.8040   54.9990   12.1030 N   0  0  0  0  0  0  0  0  0  0  0  0
   -6.9440   54.1610   12.8240 C   0  0  0  0  0  0  0  0  0  0  0  0
   -5.6020   54.1490   12.4580 C   0  0  0  0  0  0  0  0  0  0  0  0
   -7.4000   53.3290   13.8610 C   0  0  0  0  0  0  0  0  0  0  0  0
   -6.4710   52.5690   14.5680 C   0  0  0  0  0  0  0  0  0  0  0  0
   -5.1160   52.5580   14.2430 C   0  0  0  0  0  0  0  0  0  0  0  0
   -4.7140   53.3440   13.1770 C   0  0  0  0  0  0  0  0  0  0  0  0
   -3.2930   53.3440   12.8090 C   0  0  0  0  0  0  0  0  0  0  0  0
   -2.8080   53.6280   11.5880 N   0  5  0  0  0  0  0  0  0  0  0  0
   -1.4420   53.4520   11.6620 N   0  0  0  0  0  0  0  0  0  0  0  0
   -1.1290   53.0620   12.9220 N   0  0  0  0  0  0  0  0  0  0  0  0
   -2.2780   53.0180   13.6300 N   0  0  0  0  0  0  0  0  0  0  0  0
  -10.9260   57.1450   13.3970 H   0  0  0  0  0  0  0  0  0  0  0  0
  -13.0450   59.1850   12.8710 H   0  0  0  0  0  0  0  0  0  0  0  0
  -12.0630   59.6480    8.8350 H   0  0  0  0  0  0  0  0  0  0  0  0
   -9.8910   57.7340    8.5730 H   0  0  0  0  0  0  0  0  0  0  0  0
   -8.5780   56.1530    9.9000 H   0  0  0  0  0  0  0  0  0  0  0  0
   -7.5130   55.2630   11.1730 H   0  0  0  0  0  0  0  0  0  0  0  0
   -5.2560   54.7770   11.6510 H   0  0  0  0  0  0  0  0  0  0  0  0
   -8.4400   53.2370   14.1320 H   0  0  0  0  0  0  0  0  0  0  0  0
   -6.8070   51.9650   15.3950 H   0  0  0  0  0  0  0  0  0  0  0  0
   -4.4310   51.9430   14.7990 H   0  0  0  0  0  0  0  0  0  0  0  0
  2  1  2  0  0  0  0
  3  4  1  0  0  0  0
  3  2  1  0  0  0  0
  4 24  1  0  0  0  0
  5  6  1  0  0  0  0
  5  4  2  0  0  0  0
  6 25  1  0  0  0  0
  7  6  2  0  0  0  0
  8  9  1  0  0  0  0
  8  7  1  0  0  0  0
  9  5  1  0  0  0  0
 10  9  2  0  0  0  0
 10 11  1  0  0  0  0
 11  3  2  0  0  0  0
 12  2  1  0  0  0  0
 12 13  1  0  0  0  0
 13 15  1  0  0  0  0
 14 13  2  0  0  0  0
 14 18  1  0  0  0  0
 15 31  1  0  0  0  0
 15 16  2  0  0  0  0
 16 32  1  0  0  0  0
 17 16  1  0  0  0  0
 17 33  1  0  0  0  0
 18 17  2  0  0  0  0
 19 18  1  0  0  0  0
 19 23  1  0  0  0  0
 20 21  1  0  0  0  0
 20 19  2  0  0  0  0
 21 22  1  0  0  0  0
 22 23  2  0  0  0  0
 26  8  1  0  0  0  0
 27 10  1  0  0  0  0
 28 11  1  0  0  0  0
 29 12  1  0  0  0  0
 30 14  1  0  0  0  0
M  CHG  1  20  -1
M  END
$$$$
