4des_ligand_rnum.pdb
 OpenBabel02151809393D

 29 31  0  0  0  0  0  0  0  0999 V2000
   21.8840    0.1560   -7.2380 C   0  0  0  0  0  0  0  0  0  0  0  0
   22.9660   -0.7120   -7.1510 C   0  0  0  0  0  0  0  0  0  0  0  0
   23.3460   -1.2150   -5.9190 C   0  0  0  0  0  0  0  0  0  0  0  0
   22.6290   -0.8350   -4.7970 C   0  0  0  0  0  0  0  0  0  0  0  0
   22.9890   -1.3260   -3.5470 C   0  0  0  0  0  0  0  0  0  0  0  0
   22.2730   -0.9470   -2.4180 C   0  0  0  0  0  0  0  0  0  0  0  0
   21.1960   -0.0780   -2.5430 C   0  0  0  0  0  0  0  0  0  0  0  0
   20.8390    0.4110   -3.7940 C   0  0  0  0  0  0  0  0  0  0  0  0
   21.5520    0.0360   -4.9270 C   0  0  0  0  0  0  0  0  0  0  0  0
   21.1680    0.5390   -6.1380 O   0  0  0  0  0  0  0  0  0  0  0  0
   24.3010   -1.9840   -5.8230 O   0  0  0  0  0  0  0  0  0  0  0  0
   24.0440   -2.1760   -3.4290 O   0  0  0  0  0  0  0  0  0  0  0  0
   20.4920    0.2950   -1.4400 O   0  0  0  0  0  0  0  0  0  0  0  0
   21.2970    2.0130   -8.6530 C   0  0  0  0  0  0  0  0  0  0  0  0
   20.9300    2.5080   -9.8990 C   0  0  0  0  0  0  0  0  0  0  0  0
   20.7820    1.6410  -10.9760 C   0  0  0  0  0  0  0  0  0  0  0  0
   21.0020    0.2790  -10.8060 C   0  0  0  0  0  0  0  0  0  0  0  0
   21.3690   -0.2160   -9.5600 C   0  0  0  0  0  0  0  0  0  0  0  0
   21.5170    0.6510   -8.4840 C   0  0  0  0  0  0  0  0  0  0  0  0
   23.5330   -1.0050   -8.0240 H   0  0  0  0  0  0  0  0  0  0  0  0
   22.5500   -1.3330   -1.4480 H   0  0  0  0  0  0  0  0  0  0  0  0
   20.0030    1.0880   -3.8940 H   0  0  0  0  0  0  0  0  0  0  0  0
   24.4400   -2.3520   -4.2740 H   0  0  0  0  0  0  0  0  0  0  0  0
   19.8660    0.9780   -1.6300 H   0  0  0  0  0  0  0  0  0  0  0  0
   21.4200    2.6920   -7.8280 H   0  0  0  0  0  0  0  0  0  0  0  0
   20.7040    3.5580  -10.0110 H   0  0  0  0  0  0  0  0  0  0  0  0
   20.2250    1.9580  -11.8460 H   0  0  0  0  0  0  0  0  0  0  0  0
   20.8280   -0.3960  -11.6280 H   0  0  0  0  0  0  0  0  0  0  0  0
   21.5160   -1.2800   -9.4400 H   0  0  0  0  0  0  0  0  0  0  0  0
  1  2  2  0  0  0  0
  1 10  1  0  0  0  0
  2  3  1  0  0  0  0
  3 11  2  0  0  0  0
  3  4  1  0  0  0  0
  4  5  1  0  0  0  0
  5 12  1  0  0  0  0
  5  6  2  0  0  0  0
  6 21  1  0  0  0  0
  7  6  1  0  0  0  0
  7 13  1  0  0  0  0
  8  7  2  0  0  0  0
  9  4  2  0  0  0  0
  9  8  1  0  0  0  0
 10  9  1  0  0  0  0
 14 19  1  0  0  0  0
 14 25  1  0  0  0  0
 15 14  2  0  0  0  0
 16 17  2  0  0  0  0
 16 15  1  0  0  0  0
 17 18  1  0  0  0  0
 18 29  1  0  0  0  0
 18 19  2  0  0  0  0
 19  1  1  0  0  0  0
 20  2  1  0  0  0  0
 22  8  1  0  0  0  0
 23 12  1  0  0  0  0
 24 13  1  0  0  0  0
 26 15  1  0  0  0  0
 27 16  1  0  0  0  0
 28 17  1  0  0  0  0
M  END
$$$$
