3cyx_ligand_rnum.pdb
 OpenBabel02151809393D

100104  0  0  1  0  0  0  0  0999 V2000
   20.9630   27.6310   18.5850 O   0  0  0  0  0  0  0  0  0  0  0  0
   21.4180   26.4730   18.5010 C   0  0  0  0  0  0  0  0  0  0  0  0
   23.1320   24.7840   18.9890 N   0  0  0  0  0  0  0  0  0  0  0  0
   22.5260   25.9480   19.3240 C   0  0  0  0  0  0  0  0  0  0  0  0
   22.9570   26.7130   20.4290 C   0  0  0  0  0  0  0  0  0  0  0  0
   23.9510   26.1280   21.2240 C   0  0  0  0  0  0  0  0  0  0  0  0
   24.5890   24.9500   20.8630 C   0  0  0  0  0  0  0  0  0  0  0  0
   25.5900   24.3820   21.6240 C   0  0  0  0  0  0  0  0  0  0  0  0
   26.2480   23.2290   21.2520 C   0  0  0  0  0  0  0  0  0  0  0  0
   25.7750   22.5710   20.1460 C   0  0  0  0  0  0  0  0  0  0  0  0
   24.7930   23.0780   19.3660 C   0  0  0  0  0  0  0  0  0  0  0  0
   24.1450   24.2650   19.7300 C   0  0  0  0  0  0  0  0  0  0  0  0
   20.9560   25.5530   17.6310 N   0  0  0  0  0  0  0  0  0  0  0  0
   19.8020   25.7440   16.8090 C   0  0  2  0  0  0  0  0  0  0  0  0
   18.8200   24.6190   17.1240 C   0  0  0  0  0  0  0  0  0  0  0  0
   18.9680   23.5450   16.4970 O   0  0  0  0  0  0  0  0  0  0  0  0
   20.1110   25.7770   15.3330 C   0  0  0  0  0  0  0  0  0  0  0  0
   21.0210   26.9070   15.1040 C   0  0  0  0  0  0  0  0  0  0  0  0
   22.4980   26.9020   14.8440 N   0  0  0  0  0  0  0  0  0  0  0  0
   20.5210   28.0190   15.1600 O   0  0  0  0  0  0  0  0  0  0  0  0
   15.5150   24.4490   18.0900 C   0  0  1  0  0  0  0  0  0  0  0  0
   15.1850   25.5650   18.9070 O   0  0  0  0  0  0  0  0  0  0  0  0
   16.8980   23.9020   18.4630 C   0  0  1  0  0  0  0  0  0  0  0  0
   17.9100   24.8890   18.0560 N   0  0  0  0  0  0  0  0  0  0  0  0
   17.0750   23.6610   19.9590 C   0  0  0  0  0  0  0  0  0  0  0  0
   18.4960   23.4010   20.3840 C   0  0  0  0  0  0  0  0  0  0  0  0
   19.0840   22.1730   20.1610 C   0  0  0  0  0  0  0  0  0  0  0  0
   19.2320   24.3800   20.9910 C   0  0  0  0  0  0  0  0  0  0  0  0
   20.3550   21.9220   20.5830 C   0  0  0  0  0  0  0  0  0  0  0  0
   20.5240   24.1400   21.3810 C   0  0  0  0  0  0  0  0  0  0  0  0
   21.0740   22.9090   21.2000 C   0  0  0  0  0  0  0  0  0  0  0  0
   14.4060   22.6030   16.9510 N   0  3  1  0  0  0  0  0  0  0  0  0
   14.4250   23.4090   18.1430 C   0  0  0  0  0  0  0  0  0  0  0  0
   13.8020   21.2430   17.1590 C   0  0  2  0  0  0  0  0  0  0  0  0
   14.5820   20.4490   18.2200 C   0  0  0  0  0  0  0  0  0  0  0  0
   15.8020   20.4480   18.2530 O   0  0  0  0  0  0  0  0  0  0  0  0
   13.8270   20.4800   15.8790 C   0  0  0  0  0  0  0  0  0  0  0  0
   13.1450   21.1720   14.7360 C   0  0  2  0  0  0  0  0  0  0  0  0
   13.2330   20.4170   13.4160 C   0  0  0  0  0  0  0  0  0  0  0  0
   14.6010   20.4550   12.7730 C   0  0  0  0  0  0  0  0  0  0  0  0
   15.0750   21.8700   12.5940 C   0  0  0  0  0  0  0  0  0  0  0  0
   15.1100   22.5070   13.9760 C   0  0  0  0  0  0  0  0  0  0  0  0
   13.7730   22.5690   14.6270 C   0  0  2  0  0  0  0  0  0  0  0  0
   13.7110   23.3070   15.9020 C   0  0  0  0  0  0  0  0  0  0  0  0
   13.8090   19.7990   19.1250 N   0  0  0  0  0  0  0  0  0  0  0  0
   14.3160   18.9050   20.1500 C   0  0  0  0  0  0  0  0  0  0  0  0
   13.1530   18.3990   20.9750 C   0  0  0  0  0  0  0  0  0  0  0  0
   15.2240   19.6820   21.0690 C   0  0  0  0  0  0  0  0  0  0  0  0
   15.0080   17.7520   19.4800 C   0  0  0  0  0  0  0  0  0  0  0  0
   22.4980   27.6550   20.6980 H   0  0  0  0  0  0  0  0  0  0  0  0
   24.2680   26.6490   22.1160 H   0  0  0  0  0  0  0  0  0  0  0  0
   25.9140   24.8850   22.5230 H   0  0  0  0  0  0  0  0  0  0  0  0
   27.0500   22.8200   21.8500 H   0  0  0  0  0  0  0  0  0  0  0  0
   26.2380   21.6380   19.8580 H   0  0  0  0  0  0  0  0  0  0  0  0
   24.4760   22.5380   18.4870 H   0  0  0  0  0  0  0  0  0  0  0  0
   21.4230   24.6560   17.5970 H   0  0  0  0  0  0  0  0  0  0  0  0
   19.2970   26.6630   17.0400 H   0  0  0  0  0  0  0  0  0  0  0  0
   19.2050   25.9110   14.7390 H   0  0  0  0  0  0  0  0  0  0  0  0
   20.5930   24.8630   14.9870 H   0  0  0  0  0  0  0  0  0  0  0  0
   15.6110   24.8500   17.0850 H   0  0  0  0  0  0  0  0  0  0  0  0
   14.9750   25.2510   19.7860 H   0  0  0  0  0  0  0  0  0  0  0  0
   17.0570   22.9540   17.9450 H   0  0  0  0  0  0  0  0  0  0  0  0
   17.9080   25.7910   18.5150 H   0  0  0  0  0  0  0  0  0  0  0  0
   16.4540   22.8270   20.2870 H   0  0  0  0  0  0  0  0  0  0  0  0
   16.7480   24.5250   20.5340 H   0  0  0  0  0  0  0  0  0  0  0  0
   18.5210   21.3900   19.6730 H   0  0  0  0  0  0  0  0  0  0  0  0
   18.8030   25.3530   21.1740 H   0  0  0  0  0  0  0  0  0  0  0  0
   20.7990   20.9520   20.4230 H   0  0  0  0  0  0  0  0  0  0  0  0
   21.0950   24.9210   21.8610 H   0  0  0  0  0  0  0  0  0  0  0  0
   22.0860   22.7170   21.5240 H   0  0  0  0  0  0  0  0  0  0  0  0
   15.3630   22.4560   16.6630 H   0  0  0  0  0  0  0  0  0  0  0  0
   13.4620   23.9060   18.2520 H   0  0  0  0  0  0  0  0  0  0  0  0
   14.5270   22.8480   19.0700 H   0  0  0  0  0  0  0  0  0  0  0  0
   12.7680   21.3670   17.4880 H   0  0  0  0  0  0  0  0  0  0  0  0
   13.3600   19.5050   16.0260 H   0  0  0  0  0  0  0  0  0  0  0  0
   14.8570   20.2820   15.6020 H   0  0  0  0  0  0  0  0  0  0  0  0
   12.0890   21.2770   14.9930 H   0  0  0  0  0  0  0  0  0  0  0  0
   12.5120   20.8480   12.7250 H   0  0  0  0  0  0  0  0  0  0  0  0
   12.9210   19.3810   13.5570 H   0  0  0  0  0  0  0  0  0  0  0  0
   14.5530   19.9630   11.8100 H   0  0  0  0  0  0  0  0  0  0  0  0
   15.3110   19.8880   13.3690 H   0  0  0  0  0  0  0  0  0  0  0  0
   14.4170   22.4230   11.9230 H   0  0  0  0  0  0  0  0  0  0  0  0
   16.0670   21.8890   12.1470 H   0  0  0  0  0  0  0  0  0  0  0  0
   15.4980   23.5200   13.8660 H   0  0  0  0  0  0  0  0  0  0  0  0
   15.8420   21.9960   14.6020 H   0  0  0  0  0  0  0  0  0  0  0  0
   13.1210   23.0890   13.9490 H   0  0  0  0  0  0  0  0  0  0  0  0
   14.1310   24.2860   15.7160 H   0  0  0  0  0  0  0  0  0  0  0  0
   12.6680   23.4690   16.1770 H   0  0  0  0  0  0  0  0  0  0  0  0
   12.8060   19.8700   19.0390 H   0  0  0  0  0  0  0  0  0  0  0  0
   13.4840   17.7490   21.7850 H   0  0  0  0  0  0  0  0  0  0  0  0
   12.5950   19.2170   21.4300 H   0  0  0  0  0  0  0  0  0  0  0  0
   12.4490   17.8270   20.3680 H   0  0  0  0  0  0  0  0  0  0  0  0
   15.4790   19.0960   21.9490 H   0  0  0  0  0  0  0  0  0  0  0  0
   16.1760   19.9530   20.6140 H   0  0  0  0  0  0  0  0  0  0  0  0
   14.7510   20.5990   21.4230 H   0  0  0  0  0  0  0  0  0  0  0  0
   15.4240   17.0710   20.2200 H   0  0  0  0  0  0  0  0  0  0  0  0
   14.3200   17.1760   18.8590 H   0  0  0  0  0  0  0  0  0  0  0  0
   15.8440   18.0440   18.8490 H   0  0  0  0  0  0  0  0  0  0  0  0
   22.9740   27.7850   14.6910 H   0  0  0  0  0  0  0  0  0  0  0  0
   23.0030   26.0290   14.8200 H   0  0  0  0  0  0  0  0  0  0  0  0
  2  1  2  0  0  0  0
  2  4  1  0  0  0  0
  3  4  2  0  0  0  0
  3 12  1  0  0  0  0
  4  5  1  0  0  0  0
  5 50  1  0  0  0  0
  5  6  2  0  0  0  0
  6 51  1  0  0  0  0
  7  6  1  0  0  0  0
  7  8  2  0  0  0  0
  8 52  1  0  0  0  0
  9  8  1  0  0  0  0
  9 53  1  0  0  0  0
 10  9  2  0  0  0  0
 11 12  2  0  0  0  0
 11 10  1  0  0  0  0
 12  7  1  0  0  0  0
 13  2  1  0  0  0  0
 14 57  1  1  0  0  0
 14 15  1  0  0  0  0
 14 13  1  0  0  0  0
 15 24  1  0  0  0  0
 16 15  2  0  0  0  0
 17 14  1  0  0  0  0
 18 20  2  0  0  0  0
 18 17  1  0  0  0  0
 19 18  1  0  0  0  0
 21 60  1  6  0  0  0
 21 33  1  0  0  0  0
 21 23  1  0  0  0  0
 21 22  1  0  0  0  0
 22 61  1  0  0  0  0
 23 62  1  6  0  0  0
 23 25  1  0  0  0  0
 24 23  1  0  0  0  0
 24 63  1  0  0  0  0
 25 64  1  0  0  0  0
 25 26  1  0  0  0  0
 25 65  1  0  0  0  0
 26 28  1  0  0  0  0
 27 26  2  0  0  0  0
 27 29  1  0  0  0  0
 28 67  1  0  0  0  0
 28 30  2  0  0  0  0
 29 31  2  0  0  0  0
 30 69  1  0  0  0  0
 31 30  1  0  0  0  0
 31 70  1  0  0  0  0
 32 34  1  1  0  0  0
 32 33  1  0  0  0  0
 33 72  1  0  0  0  0
 33 73  1  0  0  0  0
 34 74  1  1  0  0  0
 34 35  1  0  0  0  0
 35 36  2  0  0  0  0
 35 45  1  0  0  0  0
 37 75  1  0  0  0  0
 37 34  1  0  0  0  0
 38 43  1  6  0  0  0
 38 77  1  0  0  0  0
 38 37  1  0  0  0  0
 39 79  1  0  0  0  0
 39 38  1  0  0  0  0
 40 81  1  0  0  0  0
 40 39  1  0  0  0  0
 41 40  1  0  0  0  0
 41 42  1  0  0  0  0
 42 85  1  0  0  0  0
 42 43  1  0  0  0  0
 43 86  1  6  0  0  0
 43 44  1  0  0  0  0
 44 88  1  0  0  0  0
 44 32  1  0  0  0  0
 45 46  1  0  0  0  0
 46 47  1  0  0  0  0
 46 48  1  0  0  0  0
 47 91  1  0  0  0  0
 47 90  1  0  0  0  0
 48 95  1  0  0  0  0
 48 93  1  0  0  0  0
 49 46  1  0  0  0  0
 49 96  1  0  0  0  0
 54 10  1  0  0  0  0
 55 11  1  0  0  0  0
 56 13  1  0  0  0  0
 58 17  1  0  0  0  0
 59 17  1  0  0  0  0
 66 27  1  0  0  0  0
 68 29  1  0  0  0  0
 71 32  1  0  0  0  0
 76 37  1  0  0  0  0
 78 39  1  0  0  0  0
 80 40  1  0  0  0  0
 82 41  1  0  0  0  0
 83 41  1  0  0  0  0
 84 42  1  0  0  0  0
 87 44  1  0  0  0  0
 89 45  1  0  0  0  0
 92 47  1  0  0  0  0
 94 48  1  0  0  0  0
 97 49  1  0  0  0  0
 98 49  1  0  0  0  0
 99 19  1  0  0  0  0
100 19  1  0  0  0  0
M  CHG  1  32   1
M  END
$$$$
