4djv_ligand_rnum.pdb
 OpenBabel02151809393D

 50 53  0  0  1  0  0  0  0  0999 V2000
   22.8640   12.9180   22.1510 O   0  0  0  0  0  0  0  0  0  0  0  0
   22.7760   11.7400   22.4370 C   0  0  0  0  0  0  0  0  0  0  0  0
   22.5330   10.5520   21.4300 C   0  0  1  0  0  0  0  0  0  0  0  0
   22.6980    9.3620   22.3290 N   0  3  0  0  0  0  0  0  0  0  0  0
   22.8530    9.7820   23.5950 C   0  0  2  0  0  0  0  0  0  0  0  0
   22.9440   11.2000   23.6910 N   0  0  0  0  0  0  0  0  0  0  0  0
   22.9790    8.9880   24.6570 N   0  0  0  0  0  0  0  0  0  0  0  0
   23.1800   11.9990   24.9000 C   0  0  0  0  0  0  0  0  0  0  0  0
   21.1000   10.5960   20.8630 C   0  0  0  0  0  0  0  0  0  0  0  0
   20.3420    9.4330   20.7660 C   0  0  0  0  0  0  0  0  0  0  0  0
   19.0400    9.4670   20.2690 C   0  0  0  0  0  0  0  0  0  0  0  0
   18.4810   10.6590   19.8700 C   0  0  0  0  0  0  0  0  0  0  0  0
   19.2200   11.8240   19.9540 C   0  0  0  0  0  0  0  0  0  0  0  0
   20.5250   11.7940   20.4410 C   0  0  0  0  0  0  0  0  0  0  0  0
   23.6440   10.6010   20.3640 C   0  0  0  0  0  0  0  0  0  0  0  0
   23.3550   10.8820   19.0310 C   0  0  0  0  0  0  0  0  0  0  0  0
   24.3740   11.0650   18.1080 C   0  0  0  0  0  0  0  0  0  0  0  0
   25.6940   10.9560   18.5040 C   0  0  0  0  0  0  0  0  0  0  0  0
   26.0150   10.6440   19.8290 C   0  0  0  0  0  0  0  0  0  0  0  0
   24.9770   10.4620   20.7510 C   0  0  0  0  0  0  0  0  0  0  0  0
   29.9970   10.4940   21.4150 C   0  0  0  0  0  0  0  0  0  0  0  0
   27.7730    9.5760   21.2460 C   0  0  0  0  0  0  0  0  0  0  0  0
   27.4290   10.5160   20.2730 C   0  0  0  0  0  0  0  0  0  0  0  0
   28.4120   11.4120   19.8460 C   0  0  0  0  0  0  0  0  0  0  0  0
   29.6820   11.4000   20.4130 C   0  0  0  0  0  0  0  0  0  0  0  0
   29.0400    9.5690   21.8180 C   0  0  0  0  0  0  0  0  0  0  0  0
   29.2030    8.6170   22.7950 O   0  0  0  0  0  0  0  0  0  0  0  0
   30.4090    8.6530   23.5740 C   0  0  0  0  0  0  0  0  0  0  0  0
   22.5550    8.3940   22.0470 H   0  0  0  0  0  0  0  0  0  0  0  0
   23.1580    9.3490   25.5920 H   0  0  0  0  0  0  0  0  0  0  0  0
   22.9870    7.9770   24.5240 H   0  0  0  0  0  0  0  0  0  0  0  0
   22.7630   11.5050   25.7770 H   0  0  0  0  0  0  0  0  0  0  0  0
   24.2520   12.1280   25.0450 H   0  0  0  0  0  0  0  0  0  0  0  0
   22.7250   12.9870   24.8270 H   0  0  0  0  0  0  0  0  0  0  0  0
   20.7360    8.4760   21.0550 H   0  0  0  0  0  0  0  0  0  0  0  0
   18.4690    8.5530   20.2000 H   0  0  0  0  0  0  0  0  0  0  0  0
   17.4710   10.6860   19.4920 H   0  0  0  0  0  0  0  0  0  0  0  0
   18.7770   12.7530   19.6470 H   0  0  0  0  0  0  0  0  0  0  0  0
   21.0730   12.7230   20.4670 H   0  0  0  0  0  0  0  0  0  0  0  0
   22.3420   10.9960   18.6800 H   0  0  0  0  0  0  0  0  0  0  0  0
   24.1340   11.2990   17.0810 H   0  0  0  0  0  0  0  0  0  0  0  0
   26.4780   11.1170   17.7790 H   0  0  0  0  0  0  0  0  0  0  0  0
   25.2050   10.2520   21.7790 H   0  0  0  0  0  0  0  0  0  0  0  0
   30.9840   10.5210   21.8510 H   0  0  0  0  0  0  0  0  0  0  0  0
   27.0390    8.8720   21.6050 H   0  0  0  0  0  0  0  0  0  0  0  0
   28.1160   12.1720   19.1500 H   0  0  0  0  0  0  0  0  0  0  0  0
   30.4160   12.1270   20.0990 H   0  0  0  0  0  0  0  0  0  0  0  0
   30.4080    7.8400   24.2950 H   0  0  0  0  0  0  0  0  0  0  0  0
   31.3040    8.5450   22.9650 H   0  0  0  0  0  0  0  0  0  0  0  0
   30.4760    9.5870   24.1300 H   0  0  0  0  0  0  0  0  0  0  0  0
  1  2  2  0  0  0  0
  2  6  1  0  0  0  0
  3 15  1  6  0  0  0
  3  4  1  0  0  0  0
  3  2  1  0  0  0  0
  4  5  1  0  0  0  0
  5  6  1  0  0  0  0
  5  7  1  6  0  0  0
  6  8  1  0  0  0  0
  7 30  1  0  0  0  0
  8 33  1  0  0  0  0
  8 32  1  0  0  0  0
  9  3  1  0  0  0  0
 10  9  1  0  0  0  0
 10 35  1  0  0  0  0
 11 10  2  0  0  0  0
 12 13  2  0  0  0  0
 12 11  1  0  0  0  0
 13 14  1  0  0  0  0
 14 39  1  0  0  0  0
 14  9  2  0  0  0  0
 15 20  1  0  0  0  0
 16 15  2  0  0  0  0
 17 18  2  0  0  0  0
 17 16  1  0  0  0  0
 18 19  1  0  0  0  0
 19 23  1  0  0  0  0
 19 20  2  0  0  0  0
 20 43  1  0  0  0  0
 21 26  1  0  0  0  0
 21 44  1  0  0  0  0
 22 45  1  0  0  0  0
 22 26  2  0  0  0  0
 23 22  1  0  0  0  0
 24 23  2  0  0  0  0
 24 25  1  0  0  0  0
 25 21  2  0  0  0  0
 26 27  1  0  0  0  0
 27 28  1  0  0  0  0
 28 50  1  0  0  0  0
 28 48  1  0  0  0  0
 29  4  1  0  0  0  0
 31  7  1  0  0  0  0
 34  8  1  0  0  0  0
 36 11  1  0  0  0  0
 37 12  1  0  0  0  0
 38 13  1  0  0  0  0
 40 16  1  0  0  0  0
 41 17  1  0  0  0  0
 42 18  1  0  0  0  0
 46 24  1  0  0  0  0
 47 25  1  0  0  0  0
 49 28  1  0  0  0  0
M  CHG  1   4   1
M  END
$$$$
