3pxf_ligand_rnum.pdb
 OpenBabel02151809393D

 33 35  0  0  0  0  0  0  0  0999 V2000
  122.8060  133.7390   64.7520 C   0  0  0  0  0  0  0  0  0  0  0  0
  123.1690  132.5480   64.0390 C   0  0  0  0  0  0  0  0  0  0  0  0
  122.1960  131.7260   63.4460 C   0  0  0  0  0  0  0  0  0  0  0  0
  120.8370  132.0570   63.5310 C   0  0  0  0  0  0  0  0  0  0  0  0
  120.3990  133.2200   64.2130 C   0  0  0  0  0  0  0  0  0  0  0  0
  119.0110  133.5290   64.2760 C   0  0  0  0  0  0  0  0  0  0  0  0
  118.5460  134.6700   64.9420 C   0  0  0  0  0  0  0  0  0  0  0  0
  119.4530  135.5370   65.5670 C   0  0  0  0  0  0  0  0  0  0  0  0
  123.7480  134.4790   65.2890 N   0  0  0  0  0  0  0  0  0  0  0  0
  121.8640  136.4760   66.3950 S   0  0  0  0  0  0  0  0  0  0  0  0
  120.8460  135.2870   65.5420 C   0  0  0  0  0  0  0  0  0  0  0  0
  121.3810  134.1110   64.8550 C   0  0  0  0  0  0  0  0  0  0  0  0
  124.6910  134.0930   66.1350 C   0  0  0  0  0  0  0  0  0  0  0  0
  124.6230  132.8740   66.9080 C   0  0  0  0  0  0  0  0  0  0  0  0
  125.6750  132.5270   67.8100 C   0  0  0  0  0  0  0  0  0  0  0  0
  126.8000  133.3920   67.9490 C   0  0  0  0  0  0  0  0  0  0  0  0
  126.8720  134.5920   67.1900 C   0  0  0  0  0  0  0  0  0  0  0  0
  125.8240  134.9400   66.2910 C   0  0  0  0  0  0  0  0  0  0  0  0
  122.7930  137.0720   65.4610 O   0  0  0  0  0  0  0  0  0  0  0  0
  122.5480  135.7720   67.4650 O   0  0  0  0  0  0  0  0  0  0  0  0
  120.9010  137.6330   67.0540 O   0  5  0  0  0  0  0  0  0  0  0  0
  124.2090  132.2700   63.9520 H   0  0  0  0  0  0  0  0  0  0  0  0
  122.4990  130.8330   62.9200 H   0  0  0  0  0  0  0  0  0  0  0  0
  120.1120  131.4070   63.0630 H   0  0  0  0  0  0  0  0  0  0  0  0
  118.2950  132.8720   63.8040 H   0  0  0  0  0  0  0  0  0  0  0  0
  117.4870  134.8820   64.9760 H   0  0  0  0  0  0  0  0  0  0  0  0
  119.0600  136.4050   66.0710 H   0  0  0  0  0  0  0  0  0  0  0  0
  123.5810  135.4810   65.2790 H   0  0  0  0  0  0  0  0  0  0  0  0
  123.7870  132.2010   66.8040 H   0  0  0  0  0  0  0  0  0  0  0  0
  125.6470  131.6380   68.4050 H   0  0  0  0  0  0  0  0  0  0  0  0
  127.5960  133.1370   68.6330 H   0  0  0  0  0  0  0  0  0  0  0  0
  127.7240  135.2460   67.2990 H   0  0  0  0  0  0  0  0  0  0  0  0
  125.8940  135.8590   65.7270 H   0  0  0  0  0  0  0  0  0  0  0  0
  1 12  1  0  0  0  0
  1  9  1  0  0  0  0
  2  1  2  0  0  0  0
  3  4  2  0  0  0  0
  3  2  1  0  0  0  0
  4  5  1  0  0  0  0
  5  6  2  0  0  0  0
  5 12  1  0  0  0  0
  6  7  1  0  0  0  0
  7 26  1  0  0  0  0
  7  8  2  0  0  0  0
  8 27  1  0  0  0  0
  9 13  1  0  0  0  0
 10 21  1  0  0  0  0
 10 20  1  0  0  0  0
 11  8  1  0  0  0  0
 11 10  1  0  0  0  0
 12 11  2  0  0  0  0
 13 18  2  0  0  0  0
 13 14  1  0  0  0  0
 14 15  2  0  0  0  0
 15 16  1  0  0  0  0
 15 30  1  0  0  0  0
 16 31  1  0  0  0  0
 17 32  1  0  0  0  0
 17 16  2  0  0  0  0
 18 17  1  0  0  0  0
 19 10  1  0  0  0  0
 22  2  1  0  0  0  0
 23  3  1  0  0  0  0
 24  4  1  0  0  0  0
 25  6  1  0  0  0  0
 28  9  1  0  0  0  0
 29 14  1  0  0  0  0
 33 18  1  0  0  0  0
M  CHG  1  21  -1
M  END
$$$$
