3pe2_ligand_rnum.pdb
 OpenBabel02151809393D

 37 40  0  0  0  0  0  0  0  0999 V2000
   23.4420  -27.8900   10.2610 N   0  0  0  0  0  0  0  0  0  0  0  0
   23.4000  -26.8690   11.1510 C   0  0  0  0  0  0  0  0  0  0  0  0
   23.2050  -27.0940   12.4630 N   0  0  0  0  0  0  0  0  0  0  0  0
   23.0470  -28.3830   12.9440 C   0  0  0  0  0  0  0  0  0  0  0  0
   23.0880  -29.4490   12.0650 C   0  0  0  0  0  0  0  0  0  0  0  0
   23.2970  -29.1720   10.6780 C   0  0  0  0  0  0  0  0  0  0  0  0
   23.7750  -30.3870   20.4220 C   0  0  0  0  0  0  0  0  0  0  0  0
   22.5010  -34.7800   15.4990 O   0  0  0  0  0  0  0  0  0  0  0  0
   22.1120  -35.5840   13.3210 O   0  5  0  0  0  0  0  0  0  0  0  0
   23.3930  -29.4680   19.7470 C   0  0  0  0  0  0  0  0  0  0  0  0
   21.9580  -26.1610   18.6360 C   0  0  0  0  0  0  0  0  0  0  0  0
   22.3810  -27.1860   19.4650 C   0  0  0  0  0  0  0  0  0  0  0  0
   22.0540  -26.2790   17.2570 C   0  0  0  0  0  0  0  0  0  0  0  0
   22.7880  -33.2180   12.3020 C   0  0  0  0  0  0  0  0  0  0  0  0
   22.9550  -31.9420   11.7510 C   0  0  0  0  0  0  0  0  0  0  0  0
   23.0150  -28.4620   17.5480 C   0  0  0  0  0  0  0  0  0  0  0  0
   22.5580  -32.3030   14.5300 C   0  0  0  0  0  0  0  0  0  0  0  0
   22.6910  -29.9080   14.7930 N   0  0  0  0  0  0  0  0  0  0  0  0
   22.7310  -27.6880   15.3480 N   0  0  0  0  0  0  0  0  0  0  0  0
   22.4100  -34.7870   14.2440 C   0  0  0  0  0  0  0  0  0  0  0  0
   22.9200  -28.3370   18.9130 C   0  0  0  0  0  0  0  0  0  0  0  0
   22.5850  -27.4390   16.7270 C   0  0  0  0  0  0  0  0  0  0  0  0
   22.6000  -33.4110   13.6860 C   0  0  0  0  0  0  0  0  0  0  0  0
   22.8320  -28.6630   14.3320 C   0  0  0  0  0  0  0  0  0  0  0  0
   22.7260  -31.0040   13.9650 C   0  0  0  0  0  0  0  0  0  0  0  0
   22.9100  -30.8090   12.6130 C   0  0  0  0  0  0  0  0  0  0  0  0
   23.5470  -25.8570   10.8070 H   0  0  0  0  0  0  0  0  0  0  0  0
   23.3370  -29.9300    9.9130 H   0  0  0  0  0  0  0  0  0  0  0  0
   24.0940  -31.2340   20.9850 H   0  0  0  0  0  0  0  0  0  0  0  0
   21.5430  -25.2620   19.0680 H   0  0  0  0  0  0  0  0  0  0  0  0
   22.2890  -27.0810   20.5360 H   0  0  0  0  0  0  0  0  0  0  0  0
   21.7160  -25.4790   16.6140 H   0  0  0  0  0  0  0  0  0  0  0  0
   22.8260  -34.0600   11.6260 H   0  0  0  0  0  0  0  0  0  0  0  0
   23.1080  -31.8600   10.6870 H   0  0  0  0  0  0  0  0  0  0  0  0
   23.4370  -29.3660   17.1370 H   0  0  0  0  0  0  0  0  0  0  0  0
   22.4010  -32.3930   15.5960 H   0  0  0  0  0  0  0  0  0  0  0  0
   22.6920  -26.8000   14.8680 H   0  0  0  0  0  0  0  0  0  0  0  0
  1  6  1  0  0  0  0
  1  2  2  0  0  0  0
  2  3  1  0  0  0  0
  3  4  1  0  0  0  0
  4 24  2  0  0  0  0
  5 26  2  0  0  0  0
  5  4  1  0  0  0  0
  6  5  1  0  0  0  0
  7 29  1  0  0  0  0
  9 20  2  0  0  0  0
 10  7  3  0  0  0  0
 11 30  1  0  0  0  0
 11 12  2  0  0  0  0
 12 31  1  0  0  0  0
 13 11  1  0  0  0  0
 14 23  1  0  0  0  0
 15 14  2  0  0  0  0
 15 26  1  0  0  0  0
 16 21  2  0  0  0  0
 17 36  1  0  0  0  0
 19 22  1  0  0  0  0
 20  8  1  0  0  0  0
 21 12  1  0  0  0  0
 21 10  1  0  0  0  0
 22 13  2  0  0  0  0
 22 16  1  0  0  0  0
 23 20  1  0  0  0  0
 23 17  2  0  0  0  0
 24 18  1  0  0  0  0
 24 19  1  0  0  0  0
 25 17  1  0  0  0  0
 25 18  2  0  0  0  0
 26 25  1  0  0  0  0
 27  2  1  0  0  0  0
 28  6  1  0  0  0  0
 32 13  1  0  0  0  0
 33 14  1  0  0  0  0
 34 15  1  0  0  0  0
 35 16  1  0  0  0  0
 37 19  1  0  0  0  0
M  CHG  1   9  -1
M  END
$$$$
