1vso_ligand_rnum.pdb
 OpenBabel02151809393D

 38 38  0  0  1  0  0  0  0  0999 V2000
   41.8390    5.0010    5.1840 N   0  3  0  0  0  0  0  0  0  0  0  0
   39.4930    5.8860    5.5700 C   0  0  0  0  0  0  0  0  0  0  0  0
   41.0750    4.6780    2.6580 O   0  0  0  0  0  0  0  0  0  0  0  0
   40.3370    4.7540    4.9780 C   0  0  1  0  0  0  0  0  0  0  0  0
   40.0710    4.5890    3.4290 C   0  0  0  0  0  0  0  0  0  0  0  0
   38.8910    4.3770    3.0650 O   0  5  0  0  0  0  0  0  0  0  0  0
   39.4480    6.2390    9.2710 O   0  0  0  0  0  0  0  0  0  0  0  0
   38.0380    3.8840    7.1560 O   0  0  0  0  0  0  0  0  0  0  0  0
   38.6860    5.0620    9.0890 N   0  0  0  0  0  0  0  0  0  0  0  0
   40.6750    8.0160    8.2000 C   0  0  0  0  0  0  0  0  0  0  0  0
   37.2820    2.9370    7.9810 C   0  0  0  0  0  0  0  0  0  0  0  0
   38.6710    4.8910    7.7880 C   0  0  0  0  0  0  0  0  0  0  0  0
   39.3920    5.8970    7.0660 C   0  0  0  0  0  0  0  0  0  0  0  0
   39.8570    6.7270    8.0670 C   0  0  0  0  0  0  0  0  0  0  0  0
   39.7510    9.0910    8.8210 C   0  0  0  0  0  0  0  0  0  0  0  0
   41.8670    7.7950    9.1260 C   0  0  0  0  0  0  0  0  0  0  0  0
   41.1810    8.5560    6.8690 C   0  0  0  0  0  0  0  0  0  0  0  0
   36.2720    1.9120    6.8820 P   0  0  0  0  0  0  0  0  0  0  0  0
   37.1590    1.1790    5.9410 O   0  0  0  0  0  0  0  0  0  0  0  0
   35.4750    1.0470    7.8200 O   0  5  0  0  0  0  0  0  0  0  0  0
   35.2950    2.8940    6.1530 O   0  5  0  0  0  0  0  0  0  0  0  0
   42.3610    4.2340    4.7780 H   0  0  0  0  0  0  0  0  0  0  0  0
   42.1050    5.8640    4.7280 H   0  0  0  0  0  0  0  0  0  0  0  0
   42.0400    5.0560    6.1750 H   0  0  0  0  0  0  0  0  0  0  0  0
   38.4800    5.8320    5.1700 H   0  0  0  0  0  0  0  0  0  0  0  0
   39.8720    6.8330    5.1910 H   0  0  0  0  0  0  0  0  0  0  0  0
   40.0790    3.8060    5.4510 H   0  0  0  0  0  0  0  0  0  0  0  0
   36.6370    3.4700    8.6800 H   0  0  0  0  0  0  0  0  0  0  0  0
   37.9740    2.3330    8.5680 H   0  0  0  0  0  0  0  0  0  0  0  0
   40.2660   10.0460    8.9310 H   0  0  0  0  0  0  0  0  0  0  0  0
   38.8690    9.2520    8.2010 H   0  0  0  0  0  0  0  0  0  0  0  0
   39.3990    8.8010    9.8120 H   0  0  0  0  0  0  0  0  0  0  0  0
   42.5550    8.6400    9.1480 H   0  0  0  0  0  0  0  0  0  0  0  0
   41.5470    7.5970   10.1450 H   0  0  0  0  0  0  0  0  0  0  0  0
   42.3870    6.9130    8.8210 H   0  0  0  0  0  0  0  0  0  0  0  0
   41.7490    9.4690    7.0300 H   0  0  0  0  0  0  0  0  0  0  0  0
   41.8210    7.8310    6.3680 H   0  0  0  0  0  0  0  0  0  0  0  0
   40.3530    8.7900    6.2060 H   0  0  0  0  0  0  0  0  0  0  0  0
  1 24  1  0  0  0  0
  2 13  1  0  0  0  0
  3  5  2  0  0  0  0
  4  1  1  0  0  0  0
  4 27  1  1  0  0  0
  4  2  1  0  0  0  0
  5  4  1  0  0  0  0
  6  5  1  0  0  0  0
  8 12  1  0  0  0  0
  8 11  1  0  0  0  0
  9  7  1  0  0  0  0
 10 15  1  0  0  0  0
 10 16  1  0  0  0  0
 11 29  1  0  0  0  0
 11 28  1  0  0  0  0
 12  9  2  0  0  0  0
 13 12  1  0  0  0  0
 13 14  2  0  0  0  0
 14 10  1  0  0  0  0
 14  7  1  0  0  0  0
 15 30  1  0  0  0  0
 15 32  1  0  0  0  0
 16 33  1  0  0  0  0
 16 34  1  0  0  0  0
 17 36  1  0  0  0  0
 17 10  1  0  0  0  0
 18 20  1  0  0  0  0
 18 11  1  0  0  0  0
 19 18  2  0  0  0  0
 21 18  1  0  0  0  0
 22  1  1  0  0  0  0
 23  1  1  0  0  0  0
 25  2  1  0  0  0  0
 26  2  1  0  0  0  0
 31 15  1  0  0  0  0
 35 16  1  0  0  0  0
 37 17  1  0  0  0  0
 38 17  1  0  0  0  0
M  CHG  4   1   1   6  -1  20  -1  21  -1
M  END
$$$$
