1w4o_ligand_rnum.pdb
 OpenBabel02151809393D

 32 33  0  0  1  0  0  0  0  0999 V2000
   36.5030   -2.0840   11.7110 N   0  0  0  0  0  0  0  0  0  0  0  0
   35.2100   -2.1570   11.1150 C   0  0  0  0  0  0  0  0  0  0  0  0
   34.7380   -1.2530   10.5240 O   0  0  0  0  0  0  0  0  0  0  0  0
   34.5840   -3.3970   11.3050 N   0  0  0  0  0  0  0  0  0  0  0  0
   35.0790   -4.5240   11.9990 C   0  0  0  0  0  0  0  0  0  0  0  0
   34.3810   -5.5120   12.0540 O   0  0  0  0  0  0  0  0  0  0  0  0
   36.4010   -4.3530   12.5790 C   0  0  0  0  0  0  0  0  0  0  0  0
   37.0560   -3.1880   12.4290 C   0  0  0  0  0  0  0  0  0  0  0  0
   40.7770    0.3360   13.9640 O   0  0  0  0  0  0  0  0  0  0  0  0
   40.2230    0.5960   12.5170 C   0  0  0  0  0  0  0  0  0  0  0  0
   38.9370    0.3200   12.2850 C   0  0  1  0  0  0  0  0  0  0  0  0
   38.7340   -0.9590   11.6930 O   0  0  0  0  0  0  0  0  0  0  0  0
   38.0330    1.1710   12.8790 C   0  0  1  0  0  0  0  0  0  0  0  0
   37.3130    2.4500   12.4140 O   0  0  0  0  0  0  0  0  0  0  0  0
   36.8820   -0.1270   13.0650 C   0  0  2  0  0  0  0  0  0  0  0  0
   37.0630   -0.8150   14.5460 O   0  0  0  0  0  0  0  0  0  0  0  0
   37.1810   -0.8620   11.5770 C   0  0  2  0  0  0  0  0  0  0  0  0
   35.1240    3.1800   13.3130 O   0  0  0  0  0  0  0  0  0  0  0  0
   36.6740    3.5710   13.1930 P   0  0  2  0  0  0  0  0  0  0  0  0
   36.9060    4.8640   12.4680 O   0  5  0  0  0  0  0  0  0  0  0  0
   37.2690    3.6140   14.5750 O   0  5  0  0  0  0  0  0  0  0  0  0
   33.6820   -3.5200   10.8530 H   0  0  0  0  0  0  0  0  0  0  0  0
   36.8530   -5.1640   13.1310 H   0  0  0  0  0  0  0  0  0  0  0  0
   38.0340   -3.0900   12.8780 H   0  0  0  0  0  0  0  0  0  0  0  0
   40.6210   -0.5700   14.1860 H   0  0  0  0  0  0  0  0  0  0  0  0
   40.8610    0.0420   11.8250 H   0  0  0  0  0  0  0  0  0  0  0  0
   40.4370    1.6490   12.3140 H   0  0  0  0  0  0  0  0  0  0  0  0
   38.8750    0.8150   11.3150 H   0  0  0  0  0  0  0  0  0  0  0  0
   38.3770    1.4120   13.8860 H   0  0  0  0  0  0  0  0  0  0  0  0
   35.8760    0.2900   13.0260 H   0  0  0  0  0  0  0  0  0  0  0  0
   36.2250   -1.1810   14.7950 H   0  0  0  0  0  0  0  0  0  0  0  0
   36.8840   -0.3020   10.6860 H   0  0  0  0  0  0  0  0  0  0  0  0
  1  8  1  0  0  0  0
  2  4  1  0  0  0  0
  2  1  1  0  0  0  0
  3  2  2  0  0  0  0
  4  5  1  0  0  0  0
  5  6  2  0  0  0  0
  5  7  1  0  0  0  0
  7 23  1  0  0  0  0
  8  7  2  0  0  0  0
  8 24  1  0  0  0  0
  9 25  1  0  0  0  0
 10  9  1  0  0  0  0
 11 10  1  0  0  0  0
 11 13  1  1  0  0  0
 12 11  1  0  0  0  0
 13 15  1  1  0  0  0
 13 29  1  0  0  0  0
 14 13  1  0  0  0  0
 14 19  1  0  0  0  0
 15 17  1  6  0  0  0
 15 16  1  0  0  0  0
 16 31  1  0  0  0  0
 17 32  1  6  0  0  0
 17 12  1  0  0  0  0
 17  1  1  0  0  0  0
 19 20  2  6  0  0  0
 19 18  1  0  0  0  0
 19 21  1  0  0  0  0
 22  4  1  0  0  0  0
 26 10  1  0  0  0  0
 27 10  1  0  0  0  0
 28 11  1  0  0  0  0
 30 15  1  0  0  0  0
M  CHG  2  20  -1  21  -1
M  END
$$$$
