1kel_ligand_rnum.pdb
 OpenBabel02151809393D

 40 40  0  0  1  0  0  0  0  0999 V2000
  -23.4170   36.2400   17.2300 C   0  0  0  0  0  0  0  0  0  0  0  0
  -23.5630   37.6280   17.1240 C   0  0  0  0  0  0  0  0  0  0  0  0
  -22.6270   38.3670   16.3520 C   0  0  0  0  0  0  0  0  0  0  0  0
  -21.5130   37.7280   15.8430 C   0  0  0  0  0  0  0  0  0  0  0  0
  -21.2980   36.3540   16.0730 C   0  0  0  0  0  0  0  0  0  0  0  0
  -22.2450   35.6210   16.7750 C   0  0  0  0  0  0  0  0  0  0  0  0
  -22.0310   34.1620   17.0390 N   0  3  0  0  0  0  0  0  0  0  0  0
  -22.8000   33.5630   17.6990 O   0  0  0  0  0  0  0  0  0  0  0  0
  -21.2310   33.5430   16.4130 O   0  5  0  0  0  0  0  0  0  0  0  0
  -22.8860   39.8500   16.0920 C   0  0  0  0  0  0  0  0  0  0  0  0
  -24.2810   40.2910   16.3140 N   0  3  2  0  0  0  0  0  0  0  0  0
  -25.2730   39.7500   15.3070 C   0  0  0  0  0  0  0  0  0  0  0  0
  -27.0840   39.7970   15.6940 P   0  0  1  0  0  0  0  0  0  0  0  0
  -27.4690   38.8120   16.8460 O   0  0  0  0  0  0  0  0  0  0  0  0
  -27.6150   41.2580   16.1360 O   0  5  0  0  0  0  0  0  0  0  0  0
  -27.7450   39.4050   14.4660 O   0  5  0  0  0  0  0  0  0  0  0  0
  -24.4950   41.7850   16.6520 C   0  0  0  0  0  0  0  0  0  0  0  0
  -24.0730   42.1300   18.0900 C   0  0  0  0  0  0  0  0  0  0  0  0
  -24.4760   41.0040   19.0580 C   0  0  0  0  0  0  0  0  0  0  0  0
  -24.3590   41.5060   20.5040 C   0  0  0  0  0  0  0  0  0  0  0  0
  -25.5060   42.4520   20.8130 C   0  0  0  0  0  0  0  0  0  0  0  0
  -26.8010   42.1360   20.4540 O   0  0  0  0  0  0  0  0  0  0  0  0
  -25.2670   43.5050   21.3940 O   0  5  0  0  0  0  0  0  0  0  0  0
  -24.1590   35.6680   17.7600 H   0  0  0  0  0  0  0  0  0  0  0  0
  -24.4410   38.0840   17.5570 H   0  0  0  0  0  0  0  0  0  0  0  0
  -20.7850   38.2870   15.2740 H   0  0  0  0  0  0  0  0  0  0  0  0
  -20.4000   35.8840   15.7000 H   0  0  0  0  0  0  0  0  0  0  0  0
  -22.6090   40.1190   15.0790 H   0  0  0  0  0  0  0  0  0  0  0  0
  -22.2270   40.4030   16.7600 H   0  0  0  0  0  0  0  0  0  0  0  0
  -24.5500   39.8290   17.1710 H   0  0  0  0  0  0  0  0  0  0  0  0
  -25.0160   38.7190   15.0680 H   0  0  0  0  0  0  0  0  0  0  0  0
  -25.1020   40.2990   14.3810 H   0  0  0  0  0  0  0  0  0  0  0  0
  -25.5210   42.0970   16.5360 H   0  0  0  0  0  0  0  0  0  0  0  0
  -23.9340   42.3930   15.9410 H   0  0  0  0  0  0  0  0  0  0  0  0
  -24.4950   43.0980   18.3620 H   0  0  0  0  0  0  0  0  0  0  0  0
  -22.9990   42.2330   18.1380 H   0  0  0  0  0  0  0  0  0  0  0  0
  -23.8400   40.1330   18.9210 H   0  0  0  0  0  0  0  0  0  0  0  0
  -25.4910   40.6670   18.8460 H   0  0  0  0  0  0  0  0  0  0  0  0
  -23.3970   41.9890   20.6800 H   0  0  0  0  0  0  0  0  0  0  0  0
  -24.4280   40.6670   21.1960 H   0  0  0  0  0  0  0  0  0  0  0  0
  1 24  1  0  0  0  0
  2  1  1  0  0  0  0
  2 25  1  0  0  0  0
  3  2  2  0  0  0  0
  4  5  2  0  0  0  0
  4  3  1  0  0  0  0
  5  6  1  0  0  0  0
  6  7  1  0  0  0  0
  6  1  2  0  0  0  0
  7  8  2  0  0  0  0
  9  7  2  0  0  0  0
 10 11  1  0  0  0  0
 10  3  1  0  0  0  0
 10 29  1  0  0  0  0
 11 17  1  0  0  0  0
 11 30  1  1  0  0  0
 12 13  1  0  0  0  0
 12 11  1  0  0  0  0
 13 16  2  6  0  0  0
 13 15  1  0  0  0  0
 13 14  1  0  0  0  0
 17 18  1  0  0  0  0
 18 36  1  0  0  0  0
 18 35  1  0  0  0  0
 18 19  1  0  0  0  0
 19 20  1  0  0  0  0
 20 39  1  0  0  0  0
 20 21  1  0  0  0  0
 20 40  1  0  0  0  0
 21 23  1  0  0  0  0
 22 21  2  0  0  0  0
 26  4  1  0  0  0  0
 27  5  1  0  0  0  0
 28 10  1  0  0  0  0
 31 12  1  0  0  0  0
 32 12  1  0  0  0  0
 33 17  1  0  0  0  0
 34 17  1  0  0  0  0
 37 19  1  0  0  0  0
 38 19  1  0  0  0  0
M  CHG  6   7   1   9  -1  11   1  15  -1  16  -1  23  -1
M  END
$$$$
