3n86_ligand_rnum.pdb
 OpenBabel02151809393D

 41 42  0  0  1  0  0  0  0  0999 V2000
   28.3480   26.8320   -3.6200 O   0  0  0  0  0  0  0  0  0  0  0  0
   31.4300   25.0960    3.0840 O   0  0  0  0  0  0  0  0  0  0  0  0
   29.5250   24.3920    4.0370 O   0  5  0  0  0  0  0  0  0  0  0  0
   27.6360   20.9350    0.7890 O   0  0  0  0  0  0  0  0  0  0  0  0
   28.2490   22.4290   -1.7040 O   0  0  0  0  0  0  0  0  0  0  0  0
   31.3880   22.8590    1.5820 O   0  0  0  0  0  0  0  0  0  0  0  0
   29.5260   26.3620   -1.6360 C   0  0  0  0  0  0  0  0  0  0  0  0
   28.8800   25.0060   -1.6410 C   0  0  0  0  0  0  0  0  0  0  0  0
   29.8980   24.5330    0.6260 C   0  0  0  0  0  0  0  0  0  0  0  0
   27.2460   31.9370   -3.7590 C   0  0  0  0  0  0  0  0  0  0  0  0
   26.9560   30.7130   -4.3700 C   0  0  0  0  0  0  0  0  0  0  0  0
   28.0660   32.0340   -2.6110 C   0  0  0  0  0  0  0  0  0  0  0  0
   27.5010   29.5560   -3.7940 C   0  0  0  0  0  0  0  0  0  0  0  0
   28.6290   30.8830   -2.0450 C   0  0  0  0  0  0  0  0  0  0  0  0
   28.9690   22.6180    2.0450 C   0  0  0  0  0  0  0  0  0  0  0  0
   28.8810   28.5370   -2.0980 N   0  0  0  0  0  0  0  0  0  0  0  0
   28.8010   27.2710   -2.5560 C   0  0  0  0  0  0  0  0  0  0  0  0
   30.3500   24.4490    3.0760 C   0  0  0  0  0  0  0  0  0  0  0  0
   29.1180   24.1340   -0.4150 C   0  0  0  0  0  0  0  0  0  0  0  0
   28.3330   29.6610   -2.6620 C   0  0  0  0  0  0  0  0  0  0  0  0
   28.6940   21.8970    0.6970 C   0  0  2  0  0  0  0  0  0  0  0  0
   28.5910   22.8820   -0.4770 C   0  0  2  0  0  0  0  0  0  0  0  0
   30.1300   23.6300    1.8360 C   0  0  1  0  0  0  0  0  0  0  0  0
   27.9500   20.1130    0.4280 H   0  0  0  0  0  0  0  0  0  0  0  0
   27.5520   22.9680   -2.0660 H   0  0  0  0  0  0  0  0  0  0  0  0
   32.0910   23.4850    1.4600 H   0  0  0  0  0  0  0  0  0  0  0  0
   30.5780   26.2960   -1.9150 H   0  0  0  0  0  0  0  0  0  0  0  0
   29.4700   26.8050   -0.6420 H   0  0  0  0  0  0  0  0  0  0  0  0
   29.2510   24.4930   -2.5300 H   0  0  0  0  0  0  0  0  0  0  0  0
   27.7980   25.0930   -1.7590 H   0  0  0  0  0  0  0  0  0  0  0  0
   30.3840   25.4940    0.6600 H   0  0  0  0  0  0  0  0  0  0  0  0
   26.8340   32.8450   -4.1660 H   0  0  0  0  0  0  0  0  0  0  0  0
   26.3170   30.6580   -5.2400 H   0  0  0  0  0  0  0  0  0  0  0  0
   28.2620   32.9990   -2.1690 H   0  0  0  0  0  0  0  0  0  0  0  0
   27.2090   28.6430   -4.2790 H   0  0  0  0  0  0  0  0  0  0  0  0
   29.2620   30.9450   -1.1710 H   0  0  0  0  0  0  0  0  0  0  0  0
   29.2440   21.8990    2.8120 H   0  0  0  0  0  0  0  0  0  0  0  0
   28.0570   23.1210    2.3700 H   0  0  0  0  0  0  0  0  0  0  0  0
   29.3800   28.6760   -1.2320 H   0  0  0  0  0  0  0  0  0  0  0  0
   29.5750   21.2870    0.4900 H   0  0  0  0  0  0  0  0  0  0  0  0
   27.5810   23.2240   -0.2430 H   0  0  0  0  0  0  0  0  0  0  0  0
  1 17  2  0  0  0  0
  5 22  1  0  0  0  0
  7 28  1  0  0  0  0
  8  7  1  0  0  0  0
  8 19  1  0  0  0  0
  9 31  1  0  0  0  0
  9 23  1  0  0  0  0
 10 12  2  0  0  0  0
 11 13  2  0  0  0  0
 11 10  1  0  0  0  0
 12 34  1  0  0  0  0
 12 14  1  0  0  0  0
 13 20  1  0  0  0  0
 14 36  1  0  0  0  0
 15 38  1  0  0  0  0
 15 37  1  0  0  0  0
 16 39  1  0  0  0  0
 17 16  1  0  0  0  0
 17  7  1  0  0  0  0
 18  2  2  0  0  0  0
 18  3  1  0  0  0  0
 19  9  2  0  0  0  0
 20 16  1  0  0  0  0
 20 14  2  0  0  0  0
 21 22  1  6  0  0  0
 21  4  1  0  0  0  0
 21 15  1  0  0  0  0
 22 19  1  0  0  0  0
 22 41  1  1  0  0  0
 23  6  1  6  0  0  0
 23 15  1  0  0  0  0
 23 18  1  0  0  0  0
 24  4  1  0  0  0  0
 25  5  1  0  0  0  0
 26  6  1  0  0  0  0
 27  7  1  0  0  0  0
 29  8  1  0  0  0  0
 30  8  1  0  0  0  0
 32 10  1  0  0  0  0
 33 11  1  0  0  0  0
 35 13  1  0  0  0  0
 40 21  1  0  0  0  0
M  CHG  1   3  -1
M  END
$$$$
