2vot_ligand_rnum.pdb
 OpenBabel02151809393D

 42 44  0  0  1  0  0  0  0  0999 V2000
   27.5020   50.0970   -3.5970 O   0  0  0  0  0  0  0  0  0  0  0  0
   26.4220   49.7350   -2.7520 C   0  0  0  0  0  0  0  0  0  0  0  0
   26.7500   48.4360   -1.9860 C   0  0  2  0  0  0  0  0  0  0  0  0
   27.8340   48.6540   -0.8990 C   0  0  1  0  0  0  0  0  0  0  0  0
   27.4810   49.7890   -0.1050 O   0  0  0  0  0  0  0  0  0  0  0  0
   28.0520   47.4130    0.0070 C   0  0  2  0  0  0  0  0  0  0  0  0
   29.4270   47.3370    0.4010 O   0  0  0  0  0  0  0  0  0  0  0  0
   28.2260   44.8710   -0.2940 O   0  0  0  0  0  0  0  0  0  0  0  0
   27.3290   47.3400   -2.7950 N   0  0  0  0  0  0  0  0  0  0  0  0
   27.6530   47.2770   -4.1000 C   0  0  0  0  0  0  0  0  0  0  0  0
   28.3390   46.0860   -4.2550 C   0  0  0  0  0  0  0  0  0  0  0  0
   28.3380   45.4180   -3.0680 N   0  3  0  0  0  0  0  0  0  0  0  0
   27.7570   46.2560   -2.1820 C   0  0  0  0  0  0  0  0  0  0  0  0
   28.8700   45.5700   -5.5530 C   0  0  0  0  0  0  0  0  0  0  0  0
   30.3190   45.7090   -5.6290 N   0  0  0  0  0  0  0  0  0  0  0  0
   30.9860   46.8960   -5.8490 C   0  0  0  0  0  0  0  0  0  0  0  0
   30.3300   48.0360   -6.3370 C   0  0  0  0  0  0  0  0  0  0  0  0
   31.0630   49.2340   -6.5470 C   0  0  0  0  0  0  0  0  0  0  0  0
   32.4430   49.3190   -6.2740 C   0  0  0  0  0  0  0  0  0  0  0  0
   33.1140   48.1760   -5.7890 C   0  0  0  0  0  0  0  0  0  0  0  0
   32.3760   46.9850   -5.5880 C   0  0  0  0  0  0  0  0  0  0  0  0
   27.6020   46.1130   -0.6840 C   0  0  2  0  0  0  0  0  0  0  0  0
   28.2030   50.4670   -3.0640 H   0  0  0  0  0  0  0  0  0  0  0  0
   25.5530   49.5640   -3.3880 H   0  0  0  0  0  0  0  0  0  0  0  0
   26.1570   50.5600   -2.0930 H   0  0  0  0  0  0  0  0  0  0  0  0
   25.8310   48.0610   -1.5400 H   0  0  0  0  0  0  0  0  0  0  0  0
   28.7740   48.9060   -1.3950 H   0  0  0  0  0  0  0  0  0  0  0  0
   27.8010   50.5910   -0.5150 H   0  0  0  0  0  0  0  0  0  0  0  0
   27.5120   47.5130    0.9400 H   0  0  0  0  0  0  0  0  0  0  0  0
   29.9420   47.1020   -0.3570 H   0  0  0  0  0  0  0  0  0  0  0  0
   27.5660   44.1810   -0.3300 H   0  0  0  0  0  0  0  0  0  0  0  0
   27.4530   48.0420   -4.8100 H   0  0  0  0  0  0  0  0  0  0  0  0
   28.7310   44.4950   -2.8930 H   0  0  0  0  0  0  0  0  0  0  0  0
   28.3760   46.0580   -6.3930 H   0  0  0  0  0  0  0  0  0  0  0  0
   28.6490   44.5060   -5.6240 H   0  0  0  0  0  0  0  0  0  0  0  0
   30.8410   44.9770   -5.1640 H   0  0  0  0  0  0  0  0  0  0  0  0
   29.2780   48.0220   -6.5650 H   0  0  0  0  0  0  0  0  0  0  0  0
   30.5590   50.1110   -6.9170 H   0  0  0  0  0  0  0  0  0  0  0  0
   32.9770   50.2450   -6.4290 H   0  0  0  0  0  0  0  0  0  0  0  0
   34.1650   48.2170   -5.5430 H   0  0  0  0  0  0  0  0  0  0  0  0
   32.8250   46.1800   -5.1100 H   0  0  0  0  0  0  0  0  0  0  0  0
   26.5300   45.9920   -0.5240 H   0  0  0  0  0  0  0  0  0  0  0  0
  1 23  1  0  0  0  0
  1  2  1  0  0  0  0
  2 25  1  0  0  0  0
  2  3  1  0  0  0  0
  3 26  1  0  0  0  0
  3  4  1  1  0  0  0
  4  5  1  0  0  0  0
  4  6  1  1  0  0  0
  6 22  1  6  0  0  0
  6  7  1  0  0  0  0
  6 29  1  0  0  0  0
  9 13  1  0  0  0  0
  9  3  1  0  0  0  0
 10  9  1  0  0  0  0
 11 10  2  0  0  0  0
 11 12  1  0  0  0  0
 12 33  1  0  0  0  0
 12 13  2  0  0  0  0
 13 22  1  0  0  0  0
 14 11  1  0  0  0  0
 15 14  1  0  0  0  0
 15 36  1  0  0  0  0
 16 15  1  0  0  0  0
 16 21  2  0  0  0  0
 17 16  1  0  0  0  0
 18 17  2  0  0  0  0
 18 19  1  0  0  0  0
 19 20  2  0  0  0  0
 20 21  1  0  0  0  0
 20 40  1  0  0  0  0
 21 41  1  0  0  0  0
 22 42  1  1  0  0  0
 22  8  1  0  0  0  0
 24  2  1  0  0  0  0
 27  4  1  0  0  0  0
 28  5  1  0  0  0  0
 30  7  1  0  0  0  0
 31  8  1  0  0  0  0
 32 10  1  0  0  0  0
 34 14  1  0  0  0  0
 35 14  1  0  0  0  0
 37 17  1  0  0  0  0
 38 18  1  0  0  0  0
 39 19  1  0  0  0  0
M  CHG  1  12   1
M  END
$$$$
