2vw5_ligand_rnum.pdb
 OpenBabel02151809393D

 78 79  0  0  1  0  0  0  0  0999 V2000
   40.9960   -5.2790   41.7570 O   0  0  0  0  0  0  0  0  0  0  0  0
   41.0020   -5.7550   40.6250 C   0  0  0  0  0  0  0  0  0  0  0  0
   41.4180   -7.1450   40.5150 C   0  0  0  0  0  0  0  0  0  0  0  0
   42.7470   -7.5080   41.1090 C   0  0  0  0  0  0  0  0  0  0  0  0
   40.5640   -8.0530   39.9520 C   0  0  0  0  0  0  0  0  0  0  0  0
   40.7860   -9.5190   39.7600 C   0  0  0  0  0  0  0  0  0  0  0  0
   40.0280   -9.9160   38.4900 C   0  0  0  0  0  0  0  0  0  0  0  0
   38.5180  -10.0610   38.6600 C   0  0  2  0  0  0  0  0  0  0  0  0
   38.1500  -11.0510   39.7780 C   0  0  0  0  0  0  0  0  0  0  0  0
   40.6430   -4.9780   39.5910 N   0  0  0  0  0  0  0  0  0  0  0  0
   40.8770   -5.2320   38.2610 C   0  0  0  0  0  0  0  0  0  0  0  0
   39.8760   -4.9220   37.3560 C   0  0  0  0  0  0  0  0  0  0  0  0
   40.0430   -5.1480   35.9880 C   0  0  0  0  0  0  0  0  0  0  0  0
   38.9920   -4.8630   35.1630 O   0  0  0  0  0  0  0  0  0  0  0  0
   41.2240   -5.7010   35.4980 C   0  0  0  0  0  0  0  0  0  0  0  0
   42.2460   -6.0330   36.4130 C   0  0  0  0  0  0  0  0  0  0  0  0
   42.0690   -5.7740   37.7770 C   0  0  0  0  0  0  0  0  0  0  0  0
   43.5440   -6.6740   35.9660 C   0  0  0  0  0  0  0  0  0  0  0  0
   43.4590   -8.2170   35.8600 C   0  0  1  0  0  0  0  0  0  0  0  0
   43.2910   -8.9200   37.2190 C   0  0  0  0  0  0  0  0  0  0  0  0
   42.3660   -8.6630   34.8460 C   0  0  0  0  0  0  0  0  0  0  0  0
   42.1310  -10.1630   34.7050 C   0  0  2  0  0  0  0  0  0  0  0  0
   43.3610  -10.8360   34.3610 O   0  0  0  0  0  0  0  0  0  0  0  0
   43.3820  -12.2070   34.6920 C   0  0  0  0  0  0  0  0  0  0  0  0
   41.0990  -10.4920   33.6260 C   0  0  2  0  0  0  0  0  0  0  0  0
   41.6470   -9.9950   32.3850 O   0  0  0  0  0  0  0  0  0  0  0  0
   39.7420   -9.8420   33.9210 C   0  0  1  0  0  0  0  0  0  0  0  0
   38.7820  -10.2650   32.8140 C   0  0  0  0  0  0  0  0  0  0  0  0
   39.1360  -10.3870   35.2100 C   0  0  0  0  0  0  0  0  0  0  0  0
   38.3980   -9.7100   36.1370 C   0  0  0  0  0  0  0  0  0  0  0  0
   38.0460   -8.2490   36.0160 C   0  0  0  0  0  0  0  0  0  0  0  0
   37.8750  -10.4970   37.3180 C   0  0  2  0  0  0  0  0  0  0  0  0
   36.4860  -10.2250   37.4330 O   0  0  0  0  0  0  0  0  0  0  0  0
   35.5900  -11.0430   36.6650 C   0  0  0  0  0  0  0  0  0  0  0  0
   36.0620  -11.8940   35.9290 O   0  0  0  0  0  0  0  0  0  0  0  0
   34.3080  -10.7740   36.8570 N   0  0  0  0  0  0  0  0  0  0  0  0
   42.9710   -8.5700   41.0510 H   0  0  0  0  0  0  0  0  0  0  0  0
   43.5480   -6.9710   40.6000 H   0  0  0  0  0  0  0  0  0  0  0  0
   42.7780   -7.2350   42.1640 H   0  0  0  0  0  0  0  0  0  0  0  0
   39.6060   -7.6830   39.6170 H   0  0  0  0  0  0  0  0  0  0  0  0
   40.4250  -10.0470   40.6290 H   0  0  0  0  0  0  0  0  0  0  0  0
   41.8430   -9.7540   39.6520 H   0  0  0  0  0  0  0  0  0  0  0  0
   40.4280  -10.8700   38.1440 H   0  0  0  0  0  0  0  0  0  0  0  0
   40.2720   -9.1960   37.7110 H   0  0  0  0  0  0  0  0  0  0  0  0
   38.0970   -9.0910   38.9250 H   0  0  0  0  0  0  0  0  0  0  0  0
   37.0960  -11.3280   39.7420 H   0  0  0  0  0  0  0  0  0  0  0  0
   38.7380  -11.9640   39.7070 H   0  0  0  0  0  0  0  0  0  0  0  0
   38.3220  -10.6260   40.7640 H   0  0  0  0  0  0  0  0  0  0  0  0
   40.2010   -4.0970   39.8070 H   0  0  0  0  0  0  0  0  0  0  0  0
   38.9510   -4.4930   37.7070 H   0  0  0  0  0  0  0  0  0  0  0  0
   39.0720   -5.2430   34.2950 H   0  0  0  0  0  0  0  0  0  0  0  0
   41.3430   -5.8910   34.4410 H   0  0  0  0  0  0  0  0  0  0  0  0
   42.8590   -6.0350   38.4640 H   0  0  0  0  0  0  0  0  0  0  0  0
   44.3420   -6.4260   36.6600 H   0  0  0  0  0  0  0  0  0  0  0  0
   43.8300   -6.2500   35.0030 H   0  0  0  0  0  0  0  0  0  0  0  0
   44.4170   -8.5560   35.4630 H   0  0  0  0  0  0  0  0  0  0  0  0
   43.3030  -10.0050   37.1380 H   0  0  0  0  0  0  0  0  0  0  0  0
   44.1010   -8.6460   37.8950 H   0  0  0  0  0  0  0  0  0  0  0  0
   42.3660   -8.6130   37.6930 H   0  0  0  0  0  0  0  0  0  0  0  0
   42.5910   -8.2070   33.8830 H   0  0  0  0  0  0  0  0  0  0  0  0
   41.4270   -8.2380   35.1860 H   0  0  0  0  0  0  0  0  0  0  0  0
   41.7720  -10.5490   35.6590 H   0  0  0  0  0  0  0  0  0  0  0  0
   44.3630  -12.6160   34.4540 H   0  0  0  0  0  0  0  0  0  0  0  0
   43.2060  -12.3640   35.7570 H   0  0  0  0  0  0  0  0  0  0  0  0
   42.6540  -12.7880   34.1290 H   0  0  0  0  0  0  0  0  0  0  0  0
   40.9600  -11.5690   33.5310 H   0  0  0  0  0  0  0  0  0  0  0  0
   42.4790  -10.4260   32.2490 H   0  0  0  0  0  0  0  0  0  0  0  0
   39.8180   -8.7590   33.9000 H   0  0  0  0  0  0  0  0  0  0  0  0
   37.9250   -9.5950   32.8140 H   0  0  0  0  0  0  0  0  0  0  0  0
   39.2250  -10.2520   31.8250 H   0  0  0  0  0  0  0  0  0  0  0  0
   38.4110  -11.2800   32.9650 H   0  0  0  0  0  0  0  0  0  0  0  0
   39.3090  -11.4420   35.3720 H   0  0  0  0  0  0  0  0  0  0  0  0
   38.3280   -7.7120   36.9210 H   0  0  0  0  0  0  0  0  0  0  0  0
   38.5180   -7.7420   35.1800 H   0  0  0  0  0  0  0  0  0  0  0  0
   36.9740   -8.1460   35.8850 H   0  0  0  0  0  0  0  0  0  0  0  0
   38.0730  -11.5610   37.1790 H   0  0  0  0  0  0  0  0  0  0  0  0
   33.6030  -11.3170   36.3570 H   0  0  0  0  0  0  0  0  0  0  0  0
   34.0640  -10.0370   37.5000 H   0  0  0  0  0  0  0  0  0  0  0  0
  2  1  2  0  0  0  0
  3  2  1  0  0  0  0
  3  4  1  0  0  0  0
  4 39  1  0  0  0  0
  5  3  2  0  0  0  0
  6  5  1  0  0  0  0
  6 41  1  0  0  0  0
  7  8  1  0  0  0  0
  7  6  1  0  0  0  0
  8 32  1  6  0  0  0
  8 45  1  0  0  0  0
  8  9  1  0  0  0  0
  9 48  1  0  0  0  0
 10 49  1  0  0  0  0
 10  2  1  0  0  0  0
 11 10  1  0  0  0  0
 12 50  1  0  0  0  0
 12 11  2  0  0  0  0
 13 12  1  0  0  0  0
 14 13  1  0  0  0  0
 15 13  2  0  0  0  0
 15 16  1  0  0  0  0
 16 17  2  0  0  0  0
 17 11  1  0  0  0  0
 17 53  1  0  0  0  0
 18 16  1  0  0  0  0
 18 54  1  0  0  0  0
 19 56  1  6  0  0  0
 19 18  1  0  0  0  0
 19 20  1  0  0  0  0
 20 59  1  0  0  0  0
 20 58  1  0  0  0  0
 21 61  1  0  0  0  0
 21 19  1  0  0  0  0
 22 25  1  6  0  0  0
 22 21  1  0  0  0  0
 22 62  1  0  0  0  0
 23 24  1  0  0  0  0
 23 22  1  0  0  0  0
 24 64  1  0  0  0  0
 25 27  1  1  0  0  0
 26 25  1  0  0  0  0
 27 68  1  1  0  0  0
 27 29  1  0  0  0  0
 28 69  1  0  0  0  0
 28 71  1  0  0  0  0
 28 27  1  0  0  0  0
 29 72  1  0  0  0  0
 29 30  2  0  0  0  0
 30 32  1  0  0  0  0
 31 30  1  0  0  0  0
 31 73  1  0  0  0  0
 32 76  1  6  0  0  0
 32 33  1  0  0  0  0
 34 36  1  0  0  0  0
 34 33  1  0  0  0  0
 35 34  2  0  0  0  0
 36 78  1  0  0  0  0
 37  4  1  0  0  0  0
 38  4  1  0  0  0  0
 40  5  1  0  0  0  0
 42  6  1  0  0  0  0
 43  7  1  0  0  0  0
 44  7  1  0  0  0  0
 46  9  1  0  0  0  0
 47  9  1  0  0  0  0
 51 14  1  0  0  0  0
 52 15  1  0  0  0  0
 55 18  1  0  0  0  0
 57 20  1  0  0  0  0
 60 21  1  0  0  0  0
 63 24  1  0  0  0  0
 65 24  1  0  0  0  0
 66 25  1  0  0  0  0
 67 26  1  0  0  0  0
 70 28  1  0  0  0  0
 74 31  1  0  0  0  0
 75 31  1  0  0  0  0
 77 36  1  0  0  0  0
M  END
$$$$
