3n7a_ligand_rnum.pdb
 OpenBabel02151809393D

 21 21  0  0  1  0  0  0  0  0999 V2000
   44.1930    7.4980   26.9400 C   0  0  0  0  0  0  0  0  0  0  0  0
   43.1350    7.7950   25.8900 C   0  0  1  0  0  0  0  0  0  0  0  0
   42.6860    9.1730   26.0020 O   0  0  0  0  0  0  0  0  0  0  0  0
   43.7180    7.5280   24.5000 C   0  0  2  0  0  0  0  0  0  0  0  0
   42.6520    7.6230   23.5870 O   0  0  0  0  0  0  0  0  0  0  0  0
   44.3450    6.1470   24.4450 C   0  0  0  0  0  0  0  0  0  0  0  0
   44.7570    5.4970   25.6020 C   0  0  0  0  0  0  0  0  0  0  0  0
   45.9970    5.7860   27.5490 C   0  0  1  0  0  0  0  0  0  0  0  0
   46.4530    6.8120   28.4250 O   0  0  0  0  0  0  0  0  0  0  0  0
   43.6030    5.1380   27.5580 O   0  0  0  0  0  0  0  0  0  0  0  0
   46.1060    4.4790   28.0570 O   0  5  0  0  0  0  0  0  0  0  0  0
   44.6090    6.0040   26.9170 C   0  0  1  0  0  0  0  0  0  0  0  0
   43.8090    7.7420   27.9290 H   0  0  0  0  0  0  0  0  0  0  0  0
   45.0490    8.1530   26.7660 H   0  0  0  0  0  0  0  0  0  0  0  0
   42.2690    7.1530   26.0640 H   0  0  0  0  0  0  0  0  0  0  0  0
   41.7950    9.1740   26.3320 H   0  0  0  0  0  0  0  0  0  0  0  0
   44.4770    8.2670   24.2430 H   0  0  0  0  0  0  0  0  0  0  0  0
   43.0020    7.8730   22.7380 H   0  0  0  0  0  0  0  0  0  0  0  0
   44.4890    5.6930   23.4760 H   0  0  0  0  0  0  0  0  0  0  0  0
   45.1940    4.5140   25.4970 H   0  0  0  0  0  0  0  0  0  0  0  0
   43.9200    4.2420   27.5330 H   0  0  0  0  0  0  0  0  0  0  0  0
  1 13  1  0  0  0  0
  2  4  1  6  0  0  0
  2  3  1  0  0  0  0
  2 15  1  0  0  0  0
  2  1  1  0  0  0  0
  3 16  1  0  0  0  0
  4 17  1  6  0  0  0
  5  4  1  0  0  0  0
  6  4  1  0  0  0  0
  6  7  2  0  0  0  0
  7 12  1  0  0  0  0
  8 11  1  1  0  0  0
  8  9  1  0  0  0  0
 12  1  1  0  0  0  0
 12  8  1  0  0  0  0
 12 10  1  1  0  0  0
 14  1  1  0  0  0  0
 18  5  1  0  0  0  0
 19  6  1  0  0  0  0
 20  7  1  0  0  0  0
 21 10  1  0  0  0  0
M  CHG  1  11  -1
M  END
$$$$
