1w3l_ligand_rnum.pdb
 OpenBabel02151809393D

 63 65  0  0  1  0  0  0  0  0999 V2000
   57.2280   50.5890   39.1650 C   0  0  2  0  0  0  0  0  0  0  0  0
   56.0560   51.4800   38.7980 C   0  0  2  0  0  0  0  0  0  0  0  0
   56.4420   52.5320   37.7770 C   0  0  1  0  0  0  0  0  0  0  0  0
   57.1650   51.8770   36.6160 C   0  0  1  0  0  0  0  0  0  0  0  0
   57.6590   52.8670   35.5900 C   0  0  0  0  0  0  0  0  0  0  0  0
   57.8970   50.0560   37.9120 C   0  0  1  0  0  0  0  0  0  0  0  0
   56.8190   49.5010   39.9810 O   0  0  0  0  0  0  0  0  0  0  0  0
   55.5610   52.0680   39.9820 O   0  0  0  0  0  0  0  0  0  0  0  0
   55.2880   53.1980   37.3160 O   0  0  0  0  0  0  0  0  0  0  0  0
   58.2780   51.1210   37.0700 O   0  0  0  0  0  0  0  0  0  0  0  0
   58.5850   53.7430   36.1960 O   0  0  0  0  0  0  0  0  0  0  0  0
   61.8010   47.7810   36.3460 C   0  0  2  0  0  0  0  0  0  0  0  0
   61.1670   48.7420   37.3450 C   0  0  2  0  0  0  0  0  0  0  0  0
   59.6650   48.5070   37.3740 C   0  0  1  0  0  0  0  0  0  0  0  0
   59.4320   47.0430   37.7410 C   0  0  1  0  0  0  0  0  0  0  0  0
   57.9890   46.6360   37.8660 C   0  0  0  0  0  0  0  0  0  0  0  0
   61.4160   46.3450   36.6790 C   0  0  1  0  0  0  0  0  0  0  0  0
   63.2090   47.8930   36.3430 O   0  0  0  0  0  0  0  0  0  0  0  0
   61.4410   50.0790   36.9650 O   0  0  0  0  0  0  0  0  0  0  0  0
   59.0730   49.3700   38.3380 O   0  0  0  0  0  0  0  0  0  0  0  0
   60.0060   46.2230   36.7320 O   0  0  0  0  0  0  0  0  0  0  0  0
   57.3350   46.8230   36.6200 O   0  0  0  0  0  0  0  0  0  0  0  0
   63.7750   43.9770   37.3560 C   0  0  0  0  0  0  0  0  0  0  0  0
   63.1240   43.5370   36.0590 C   0  0  2  0  0  0  0  0  0  0  0  0
   61.7440   44.1490   35.8230 C   0  0  2  0  0  0  0  0  0  0  0  0
   61.1750   43.5330   34.5440 C   0  0  1  0  0  0  0  0  0  0  0  0
   61.1970   42.0050   34.6670 C   0  0  0  0  0  0  0  0  0  0  0  0
   62.9190   43.7010   38.4670 O   0  0  0  0  0  0  0  0  0  0  0  0
   63.0070   42.1210   36.1800 O   0  0  0  0  0  0  0  0  0  0  0  0
   61.8560   45.5440   35.6470 O   0  0  0  0  0  0  0  0  0  0  0  0
   59.8120   43.8900   34.3420 O   0  0  0  0  0  0  0  0  0  0  0  0
   62.5530   41.5600   34.9400 N   0  0  0  0  0  0  0  0  0  0  0  0
   57.9650   51.1770   39.7160 H   0  0  0  0  0  0  0  0  0  0  0  0
   55.2690   50.8550   38.3710 H   0  0  0  0  0  0  0  0  0  0  0  0
   57.0960   53.2610   38.2570 H   0  0  0  0  0  0  0  0  0  0  0  0
   56.4800   51.2010   36.1210 H   0  0  0  0  0  0  0  0  0  0  0  0
   56.8390   53.4470   35.1660 H   0  0  0  0  0  0  0  0  0  0  0  0
   58.1460   52.3490   34.7650 H   0  0  0  0  0  0  0  0  0  0  0  0
   57.2660   49.3660   37.3360 H   0  0  0  0  0  0  0  0  0  0  0  0
   57.6090   49.0100   40.2480 H   0  0  0  0  0  0  0  0  0  0  0  0
   55.2980   51.3550   40.5820 H   0  0  0  0  0  0  0  0  0  0  0  0
   54.8660   53.6250   38.0750 H   0  0  0  0  0  0  0  0  0  0  0  0
   58.8820   54.3830   35.5320 H   0  0  0  0  0  0  0  0  0  0  0  0
   61.4310   47.9840   35.3430 H   0  0  0  0  0  0  0  0  0  0  0  0
   61.5870   48.5810   38.3400 H   0  0  0  0  0  0  0  0  0  0  0  0
   59.2580   48.7170   36.3820 H   0  0  0  0  0  0  0  0  0  0  0  0
   59.9120   46.8270   38.6980 H   0  0  0  0  0  0  0  0  0  0  0  0
   57.4760   47.2040   38.6410 H   0  0  0  0  0  0  0  0  0  0  0  0
   57.9190   45.5840   38.1440 H   0  0  0  0  0  0  0  0  0  0  0  0
   61.8530   46.0280   37.6270 H   0  0  0  0  0  0  0  0  0  0  0  0
   63.4550   48.8010   36.1960 H   0  0  0  0  0  0  0  0  0  0  0  0
   62.3390   50.2810   37.2240 H   0  0  0  0  0  0  0  0  0  0  0  0
   57.8490   46.4080   35.9380 H   0  0  0  0  0  0  0  0  0  0  0  0
   64.0020   45.0420   37.3280 H   0  0  0  0  0  0  0  0  0  0  0  0
   64.7220   43.4590   37.5020 H   0  0  0  0  0  0  0  0  0  0  0  0
   63.7740   43.7950   35.2250 H   0  0  0  0  0  0  0  0  0  0  0  0
   61.0740   43.9020   36.6490 H   0  0  0  0  0  0  0  0  0  0  0  0
   61.7590   43.8340   33.6740 H   0  0  0  0  0  0  0  0  0  0  0  0
   60.8560   41.5410   33.7410 H   0  0  0  0  0  0  0  0  0  0  0  0
   60.5380   41.6670   35.4670 H   0  0  0  0  0  0  0  0  0  0  0  0
   63.4390   43.2700   39.1340 H   0  0  0  0  0  0  0  0  0  0  0  0
   59.3700   43.8520   35.1770 H   0  0  0  0  0  0  0  0  0  0  0  0
   63.2250   41.8670   34.2290 H   0  0  0  0  0  0  0  0  0  0  0  0
  1  6  1  6  0  0  0
  1 33  1  0  0  0  0
  1  7  1  0  0  0  0
  2  3  1  6  0  0  0
  2  1  1  0  0  0  0
  2  8  1  0  0  0  0
  3  4  1  6  0  0  0
  3 35  1  0  0  0  0
  4 36  1  6  0  0  0
  4 10  1  0  0  0  0
  5 11  1  0  0  0  0
  5  4  1  0  0  0  0
  6 39  1  6  0  0  0
  6 20  1  0  0  0  0
  7 40  1  0  0  0  0
  8 41  1  0  0  0  0
  9  3  1  0  0  0  0
  9 42  1  0  0  0  0
 10  6  1  0  0  0  0
 12 17  1  1  0  0  0
 13 12  1  6  0  0  0
 13 45  1  0  0  0  0
 14 13  1  6  0  0  0
 14 20  1  0  0  0  0
 15 14  1  6  0  0  0
 15 16  1  0  0  0  0
 15 47  1  0  0  0  0
 16 49  1  0  0  0  0
 16 48  1  0  0  0  0
 17 21  1  0  0  0  0
 17 50  1  1  0  0  0
 18 12  1  0  0  0  0
 19 52  1  0  0  0  0
 19 13  1  0  0  0  0
 21 15  1  0  0  0  0
 22 16  1  0  0  0  0
 23 55  1  0  0  0  0
 23 28  1  0  0  0  0
 24 25  1  6  0  0  0
 24 29  1  0  0  0  0
 24 23  1  0  0  0  0
 25 26  1  6  0  0  0
 25 57  1  0  0  0  0
 26 58  1  6  0  0  0
 26 27  1  0  0  0  0
 27 32  1  0  0  0  0
 27 60  1  0  0  0  0
 28 61  1  0  0  0  0
 30 25  1  0  0  0  0
 30 17  1  0  0  0  0
 31 26  1  0  0  0  0
 31 62  1  0  0  0  0
 32 29  1  0  0  0  0
 34  2  1  0  0  0  0
 37  5  1  0  0  0  0
 38  5  1  0  0  0  0
 43 11  1  0  0  0  0
 44 12  1  0  0  0  0
 46 14  1  0  0  0  0
 51 18  1  0  0  0  0
 53 22  1  0  0  0  0
 54 23  1  0  0  0  0
 56 24  1  0  0  0  0
 59 27  1  0  0  0  0
 63 32  1  0  0  0  0
M  END
$$$$
