3gbb_ligand_rnum.pdb
 OpenBabel02151809393D

 34 35  0  0  1  0  0  0  0  0999 V2000
   -0.8170   45.2370   -0.9810 O   0  0  0  0  0  0  0  0  0  0  0  0
   -1.0370   44.0780   -0.5690 C   0  0  0  0  0  0  0  0  0  0  0  0
   -1.5230   43.1350   -1.2330 O   0  5  0  0  0  0  0  0  0  0  0  0
   -0.6620   43.7910    0.8850 C   0  0  1  0  0  0  0  0  0  0  0  0
   -0.9680   42.3940    1.2250 N   0  3  0  0  0  0  0  0  0  0  0  0
    0.8300   44.0870    1.0630 C   0  0  0  0  0  0  0  0  0  0  0  0
    1.2030   44.1780    2.5440 C   0  0  1  0  0  0  0  0  0  0  0  0
    2.7070   44.4540    2.6510 C   0  0  0  0  0  0  0  0  0  0  0  0
    0.3910   45.2750    3.2340 C   0  0  0  0  0  0  0  0  0  0  0  0
   -0.1330   44.9940    4.3340 O   0  0  0  0  0  0  0  0  0  0  0  0
    0.2960   46.3700    2.6380 O   0  5  0  0  0  0  0  0  0  0  0  0
    1.0080   42.9110    3.1830 O   0  0  0  0  0  0  0  0  0  0  0  0
    2.1810   42.1810    2.8020 C   0  0  1  0  0  0  0  0  0  0  0  0
    3.2570   43.1570    3.2470 C   0  0  2  0  0  0  0  0  0  0  0  0
    2.2610   40.8620    3.5720 C   0  0  0  0  0  0  0  0  0  0  0  0
    2.4000   41.1160    5.0730 C   0  0  0  0  0  0  0  0  0  0  0  0
    3.5820   42.0530    5.3200 C   0  0  0  0  0  0  0  0  0  0  0  0
    3.2970   43.3040    4.6760 O   0  0  0  0  0  0  0  0  0  0  0  0
   -1.2780   44.4120    1.5160 H   0  0  0  0  0  0  0  0  0  0  0  0
   -0.7490   42.2110    2.1970 H   0  0  0  0  0  0  0  0  0  0  0  0
   -1.9580   42.2340    1.0810 H   0  0  0  0  0  0  0  0  0  0  0  0
   -0.4420   41.7720    0.6270 H   0  0  0  0  0  0  0  0  0  0  0  0
    1.1070   45.0360    0.5990 H   0  0  0  0  0  0  0  0  0  0  0  0
    1.4000   43.3490    0.5170 H   0  0  0  0  0  0  0  0  0  0  0  0
    2.9460   45.2960    3.3000 H   0  0  0  0  0  0  0  0  0  0  0  0
    3.1610   44.6690    1.6850 H   0  0  0  0  0  0  0  0  0  0  0  0
    2.2220   41.9440    1.7450 H   0  0  0  0  0  0  0  0  0  0  0  0
    4.2440   42.9100    2.8570 H   0  0  0  0  0  0  0  0  0  0  0  0
    3.1150   40.2860    3.2210 H   0  0  0  0  0  0  0  0  0  0  0  0
    1.3770   40.2570    3.3710 H   0  0  0  0  0  0  0  0  0  0  0  0
    2.5180   40.2200    5.5960 H   0  0  0  0  0  0  0  0  0  0  0  0
    1.4900   41.5750    5.4600 H   0  0  0  0  0  0  0  0  0  0  0  0
    4.5010   41.6260    4.9230 H   0  0  0  0  0  0  0  0  0  0  0  0
    3.7650   42.2040    6.3770 H   0  0  0  0  0  0  0  0  0  0  0  0
  1  2  1  0  0  0  0
  2  4  1  0  0  0  0
  3  2  2  0  0  0  0
  4  6  1  0  0  0  0
  4  5  1  0  0  0  0
  4 19  1  1  0  0  0
  5 20  1  0  0  0  0
  6  7  1  0  0  0  0
  7  8  1  0  0  0  0
  7 12  1  0  0  0  0
  7  9  1  1  0  0  0
  8 14  1  0  0  0  0
  8 25  1  0  0  0  0
  9 10  1  0  0  0  0
 11  9  2  0  0  0  0
 13 12  1  0  0  0  0
 13 14  1  1  0  0  0
 13 15  1  0  0  0  0
 14 28  1  6  0  0  0
 14 18  1  0  0  0  0
 15 16  1  0  0  0  0
 16 17  1  0  0  0  0
 16 32  1  0  0  0  0
 16 31  1  0  0  0  0
 17 34  1  0  0  0  0
 18 17  1  0  0  0  0
 21  5  1  0  0  0  0
 22  5  1  0  0  0  0
 23  6  1  0  0  0  0
 24  6  1  0  0  0  0
 26  8  1  0  0  0  0
 27 13  1  0  0  0  0
 29 15  1  0  0  0  0
 30 15  1  0  0  0  0
 33 17  1  0  0  0  0
M  CHG  3   3  -1   5   1  11  -1
M  END
$$$$
