1e66_ligand_rnum.pdb
 OpenBabel02151809393D

 41 44  0  0  1  0  0  0  0  0999 V2000
    5.9600   69.5810   65.3090 N   0  3  0  0  0  0  0  0  0  0  0  0
    1.8860   69.4300   66.4690 N   0  0  0  0  0  0  0  0  0  0  0  0
    6.3780   70.6350   68.8450 C   0  0  0  0  0  0  0  0  0  0  0  0
    6.6700   70.2770   67.4340 C   0  0  0  0  0  0  0  0  0  0  0  0
    5.5690   69.9500   66.6660 C   0  0  0  0  0  0  0  0  0  0  0  0
    4.9750   69.1980   64.4700 C   0  0  0  0  0  0  0  0  0  0  0  0
    5.5190   68.7840   62.9970 C   0  0  0  0  0  0  0  0  0  0  0  0
    4.5270   67.8800   62.2460 C   0  0  1  0  0  0  0  0  0  0  0  0
    4.2820   66.4050   62.9960 C   0  0  0  0  0  0  0  0  0  0  0  0
    3.3050   66.0890   63.8490 C   0  0  0  0  0  0  0  0  0  0  0  0
    2.3030   67.1800   64.1500 C   0  0  0  0  0  0  0  0  0  0  0  0
    4.3940   63.6190   64.1310 C   0  0  0  0  0  0  0  0  0  0  0  0
    2.6210   68.6020   63.7090 C   0  0  2  0  0  0  0  0  0  0  0  0
    3.1710   68.5550   62.2170 C   0  0  0  0  0  0  0  0  0  0  0  0
    3.6230   69.1100   64.7520 C   0  0  0  0  0  0  0  0  0  0  0  0
    3.2280   69.5120   66.1460 C   0  0  0  0  0  0  0  0  0  0  0  0
    4.2480   69.9120   67.0430 C   0  0  0  0  0  0  0  0  0  0  0  0
    3.9130   70.3030   68.4610 C   0  0  0  0  0  0  0  0  0  0  0  0
    4.9340   70.6300   69.2740 C   0  0  0  0  0  0  0  0  0  0  0  0
    3.2790   64.6360   64.4660 C   0  0  0  0  0  0  0  0  0  0  0  0
    7.5600   70.9960   69.9590 Cl  0  0  0  0  0  0  0  0  0  0  0  0
    6.9380   69.6110   65.0070 H   0  0  0  0  0  0  0  0  0  0  0  0
    1.5390   69.7760   67.3520 H   0  0  0  0  0  0  0  0  0  0  0  0
    1.1920   69.2330   65.7630 H   0  0  0  0  0  0  0  0  0  0  0  0
    7.6780   70.2500   67.0540 H   0  0  0  0  0  0  0  0  0  0  0  0
    6.4890   68.2930   63.0780 H   0  0  0  0  0  0  0  0  0  0  0  0
    5.6750   69.6970   62.4230 H   0  0  0  0  0  0  0  0  0  0  0  0
    4.8680   67.6890   61.2330 H   0  0  0  0  0  0  0  0  0  0  0  0
    5.0390   65.6780   62.7550 H   0  0  0  0  0  0  0  0  0  0  0  0
    2.1170   67.1370   65.2220 H   0  0  0  0  0  0  0  0  0  0  0  0
    1.3390   66.9070   63.7270 H   0  0  0  0  0  0  0  0  0  0  0  0
    4.2440   62.6990   64.6910 H   0  0  0  0  0  0  0  0  0  0  0  0
    4.4050   63.3670   63.0710 H   0  0  0  0  0  0  0  0  0  0  0  0
    5.3700   64.0180   64.3960 H   0  0  0  0  0  0  0  0  0  0  0  0
    1.7220   69.2180   63.7460 H   0  0  0  0  0  0  0  0  0  0  0  0
    2.4760   68.0220   61.5680 H   0  0  0  0  0  0  0  0  0  0  0  0
    3.2630   69.5610   61.8080 H   0  0  0  0  0  0  0  0  0  0  0  0
    2.8980   70.3000   68.8300 H   0  0  0  0  0  0  0  0  0  0  0  0
    4.7040   70.8810   70.2990 H   0  0  0  0  0  0  0  0  0  0  0  0
    2.3140   64.1940   64.2290 H   0  0  0  0  0  0  0  0  0  0  0  0
    3.2680   64.7670   65.5480 H   0  0  0  0  0  0  0  0  0  0  0  0
  1  5  2  0  0  0  0
  2 23  1  0  0  0  0
  3 19  1  0  0  0  0
  3 21  1  0  0  0  0
  4  3  2  0  0  0  0
  5 17  1  0  0  0  0
  5  4  1  0  0  0  0
  6 15  2  0  0  0  0
  6  1  1  0  0  0  0
  7 26  1  0  0  0  0
  7  6  1  0  0  0  0
  8 28  1  6  0  0  0
  8  9  1  0  0  0  0
  8  7  1  0  0  0  0
  9 10  2  0  0  0  0
 10 11  1  0  0  0  0
 10 20  1  0  0  0  0
 11 30  1  0  0  0  0
 12 34  1  0  0  0  0
 12 20  1  0  0  0  0
 12 32  1  0  0  0  0
 13 35  1  1  0  0  0
 13 11  1  0  0  0  0
 13 15  1  0  0  0  0
 14  8  1  0  0  0  0
 14 13  1  0  0  0  0
 15 16  1  0  0  0  0
 16  2  1  0  0  0  0
 16 17  2  0  0  0  0
 17 18  1  0  0  0  0
 18 38  1  0  0  0  0
 18 19  2  0  0  0  0
 19 39  1  0  0  0  0
 20 41  1  0  0  0  0
 22  1  1  0  0  0  0
 24  2  1  0  0  0  0
 25  4  1  0  0  0  0
 27  7  1  0  0  0  0
 29  9  1  0  0  0  0
 31 11  1  0  0  0  0
 33 12  1  0  0  0  0
 36 14  1  0  0  0  0
 37 14  1  0  0  0  0
 40 20  1  0  0  0  0
M  CHG  1   1   1
M  END
$$$$
