2v00_ligand_rnum.pdb
 OpenBabel02151809393D

 29 30  0  0  0  0  0  0  0  0999 V2000
   -0.1850    5.8160    9.0300 N   0  0  0  0  0  0  0  0  0  0  0  0
    0.7630    4.9060    9.4190 C   0  0  0  0  0  0  0  0  0  0  0  0
   -1.4590    5.6870    9.4980 C   0  0  0  0  0  0  0  0  0  0  0  0
   -1.7870    4.5980   10.3450 C   0  0  0  0  0  0  0  0  0  0  0  0
   -0.7950    3.7090   10.6850 C   0  0  0  0  0  0  0  0  0  0  0  0
    0.4490    3.9140   10.2220 N   0  0  0  0  0  0  0  0  0  0  0  0
   -2.9240    0.3220   10.5550 C   0  0  0  0  0  0  0  0  0  0  0  0
   -3.7390   -0.2850    9.6130 C   0  0  0  0  0  0  0  0  0  0  0  0
   -4.9320    0.3280    9.2390 C   0  0  0  0  0  0  0  0  0  0  0  0
   -5.3010    1.5450    9.7980 C   0  0  0  0  0  0  0  0  0  0  0  0
   -4.4790    2.1540   10.7390 C   0  0  0  0  0  0  0  0  0  0  0  0
    2.0730    5.0420    9.0150 N   0  0  0  0  0  0  0  0  0  0  0  0
   -1.0030    2.5100   11.5770 C   0  0  0  0  0  0  0  0  0  0  0  0
   -3.2810    1.5500   11.1110 C   0  0  0  0  0  0  0  0  0  0  0  0
   -2.4140    2.2460   12.1290 C   0  0  0  0  0  0  0  0  0  0  0  0
   -2.3150    6.5040    9.1830 O   0  0  0  0  0  0  0  0  0  0  0  0
   -2.8000    4.4890   10.6970 H   0  0  0  0  0  0  0  0  0  0  0  0
    1.1730    3.2810   10.5580 H   0  0  0  0  0  0  0  0  0  0  0  0
   -2.0090   -0.1670   10.8530 H   0  0  0  0  0  0  0  0  0  0  0  0
   -3.4570   -1.2310    9.1770 H   0  0  0  0  0  0  0  0  0  0  0  0
   -5.5730   -0.1450    8.5090 H   0  0  0  0  0  0  0  0  0  0  0  0
   -6.2270    2.0190    9.5060 H   0  0  0  0  0  0  0  0  0  0  0  0
   -4.7740    3.0960   11.1760 H   0  0  0  0  0  0  0  0  0  0  0  0
    2.7840    4.3370    9.1860 H   0  0  0  0  0  0  0  0  0  0  0  0
    2.3730    5.7130    8.3140 H   0  0  0  0  0  0  0  0  0  0  0  0
   -0.3310    2.6360   12.4240 H   0  0  0  0  0  0  0  0  0  0  0  0
   -0.6200    1.6410   11.0460 H   0  0  0  0  0  0  0  0  0  0  0  0
   -2.8800    3.1480   12.5250 H   0  0  0  0  0  0  0  0  0  0  0  0
   -2.2990    1.5570   12.9630 H   0  0  0  0  0  0  0  0  0  0  0  0
  1  2  2  0  0  0  0
  1  3  1  0  0  0  0
  2  6  1  0  0  0  0
  3  4  1  0  0  0  0
  4  5  2  0  0  0  0
  4 17  1  0  0  0  0
  5 13  1  0  0  0  0
  6 18  1  0  0  0  0
  6  5  1  0  0  0  0
  7 19  1  0  0  0  0
  7 14  2  0  0  0  0
  8  7  1  0  0  0  0
  9  8  2  0  0  0  0
  9 10  1  0  0  0  0
 10 11  2  0  0  0  0
 11 14  1  0  0  0  0
 11 23  1  0  0  0  0
 12 24  1  0  0  0  0
 12  2  1  0  0  0  0
 13 15  1  0  0  0  0
 13 26  1  0  0  0  0
 14 15  1  0  0  0  0
 15 28  1  0  0  0  0
 15 29  1  0  0  0  0
 16  3  2  0  0  0  0
 20  8  1  0  0  0  0
 21  9  1  0  0  0  0
 22 10  1  0  0  0  0
 25 12  1  0  0  0  0
 27 13  1  0  0  0  0
M  END
$$$$
