2x00_ligand_rnum.pdb
 OpenBabel02151809393D

 85 89  0  0  1  0  0  0  0  0999 V2000
    9.0160   24.9540  -10.4650 O   0  0  0  0  0  0  0  0  0  0  0  0
    7.8360   24.7870  -10.2270 C   0  0  0  0  0  0  0  0  0  0  0  0
    7.1590   25.4890   -9.1610 O   0  0  0  0  0  0  0  0  0  0  0  0
    5.7950   25.0690   -9.2170 C   0  0  1  0  0  0  0  0  0  0  0  0
    5.7130   23.8380  -10.1300 C   0  0  0  0  0  0  0  0  0  0  0  0
    6.9610   23.8710  -11.0040 C   0  0  2  0  0  0  0  0  0  0  0  0
    7.6190   22.5170  -11.2090 C   0  0  0  0  0  0  0  0  0  0  0  0
    5.2970   24.8030   -7.8230 C   0  0  0  0  0  0  0  0  0  0  0  0
    4.3300   25.5800   -7.2940 C   0  0  0  0  0  0  0  0  0  0  0  0
    3.6030   26.5720   -8.1770 C   0  0  0  0  0  0  0  0  0  0  0  0
    3.9290   25.5310   -5.8340 C   0  0  1  0  0  0  0  0  0  0  0  0
    4.9700   24.8090   -4.9650 C   0  0  2  0  0  0  0  0  0  0  0  0
    5.3610   23.5100   -5.6710 C   0  0  0  0  0  0  0  0  0  0  0  0
    5.9540   23.6800   -7.0610 C   0  0  0  0  0  0  0  0  0  0  0  0
    3.6900   26.9470   -5.3330 C   0  0  0  0  0  0  0  0  0  0  0  0
    2.5050   27.4710   -4.9480 C   0  0  0  0  0  0  0  0  0  0  0  0
    1.2120   26.6910   -4.9790 C   0  0  0  0  0  0  0  0  0  0  0  0
    2.4980   28.9090   -4.4870 C   0  0  1  0  0  0  0  0  0  0  0  0
    1.6980   29.6680   -5.4060 O   0  0  0  0  0  0  0  0  0  0  0  0
    1.8910   29.0410   -3.0950 C   0  0  0  0  0  0  0  0  0  0  0  0
    2.8930   28.8780   -1.9670 C   0  0  0  0  0  0  0  0  0  0  0  0
    2.6620   27.6040   -1.1680 C   0  0  1  0  0  0  0  0  0  0  0  0
    3.2590   27.6400    0.2350 C   0  0  0  0  0  0  0  0  0  0  0  0
    2.3320   26.7750    1.0730 C   0  0  1  0  0  0  0  0  0  0  0  0
    1.7070   27.6100    2.1920 C   0  0  0  0  0  0  0  0  0  0  0  0
    1.2900   27.2320   -0.9700 O   0  0  0  0  0  0  0  0  0  0  0  0
    1.2610   26.2770    0.1100 C   0  0  1  0  0  0  0  0  0  0  0  0
    1.5500   24.8640   -0.3510 C   0  0  0  0  0  0  0  0  0  0  0  0
    1.1950   23.7000    0.5460 C   0  0  0  0  0  0  0  0  0  0  0  0
    2.1020   24.6670   -1.5670 C   0  0  0  0  0  0  0  0  0  0  0  0
    2.4700   23.3380   -2.2020 C   0  0  0  0  0  0  0  0  0  0  0  0
    3.0310   23.5600   -3.6150 C   0  0  0  0  0  0  0  0  0  0  0  0
    4.3370   24.3520   -3.6540 C   0  0  1  0  0  0  0  0  0  0  0  0
    4.9310   24.6090   -2.5600 N   0  3  0  0  0  0  0  0  0  0  0  0
    6.3120   24.9990   -2.3160 C   0  0  0  0  0  0  0  0  0  0  0  0
    6.5960   26.0960   -3.3310 C   0  0  0  0  0  0  0  0  0  0  0  0
    6.2110   25.7110   -4.7570 C   0  0  0  0  0  0  0  0  0  0  0  0
    5.2940   25.8900   -9.7210 H   0  0  0  0  0  0  0  0  0  0  0  0
    4.7980   23.8450  -10.7230 H   0  0  0  0  0  0  0  0  0  0  0  0
    5.7160   22.9100   -9.5850 H   0  0  0  0  0  0  0  0  0  0  0  0
    6.7330   24.3400  -11.9620 H   0  0  0  0  0  0  0  0  0  0  0  0
    6.9650   21.6950  -10.9320 H   0  0  0  0  0  0  0  0  0  0  0  0
    7.8720   22.3800  -12.2600 H   0  0  0  0  0  0  0  0  0  0  0  0
    8.5450   22.3870  -10.6480 H   0  0  0  0  0  0  0  0  0  0  0  0
    2.6340   26.8370   -7.7550 H   0  0  0  0  0  0  0  0  0  0  0  0
    4.1830   27.4880   -8.2930 H   0  0  0  0  0  0  0  0  0  0  0  0
    3.3660   26.1630   -9.1590 H   0  0  0  0  0  0  0  0  0  0  0  0
    3.0120   24.9590   -5.8850 H   0  0  0  0  0  0  0  0  0  0  0  0
    4.4860   22.8750   -5.8090 H   0  0  0  0  0  0  0  0  0  0  0  0
    6.0550   22.9260   -5.0620 H   0  0  0  0  0  0  0  0  0  0  0  0
    7.0080   23.9350   -6.9730 H   0  0  0  0  0  0  0  0  0  0  0  0
    5.9360   22.7210   -7.5600 H   0  0  0  0  0  0  0  0  0  0  0  0
    4.5380   27.6090   -5.3080 H   0  0  0  0  0  0  0  0  0  0  0  0
    0.3820   27.3580   -5.2130 H   0  0  0  0  0  0  0  0  0  0  0  0
    1.1820   25.9110   -5.7360 H   0  0  0  0  0  0  0  0  0  0  0  0
    1.0030   26.2450   -4.0080 H   0  0  0  0  0  0  0  0  0  0  0  0
    3.4960   29.3410   -4.5040 H   0  0  0  0  0  0  0  0  0  0  0  0
    2.0860   29.6030   -6.2660 H   0  0  0  0  0  0  0  0  0  0  0  0
    0.9940   28.4350   -2.9820 H   0  0  0  0  0  0  0  0  0  0  0  0
    1.5090   30.0570   -3.0200 H   0  0  0  0  0  0  0  0  0  0  0  0
    2.7650   29.7130   -1.2840 H   0  0  0  0  0  0  0  0  0  0  0  0
    3.9270   28.9450   -2.3090 H   0  0  0  0  0  0  0  0  0  0  0  0
    3.2720   26.8840   -1.6980 H   0  0  0  0  0  0  0  0  0  0  0  0
    3.2470   28.6580    0.6110 H   0  0  0  0  0  0  0  0  0  0  0  0
    4.2860   27.2770    0.2500 H   0  0  0  0  0  0  0  0  0  0  0  0
    2.8800   25.9460    1.5230 H   0  0  0  0  0  0  0  0  0  0  0  0
    0.9360   27.0500    2.7180 H   0  0  0  0  0  0  0  0  0  0  0  0
    2.4570   27.9200    2.9200 H   0  0  0  0  0  0  0  0  0  0  0  0
    1.2290   28.5090    1.8000 H   0  0  0  0  0  0  0  0  0  0  0  0
    0.2640   26.2800    0.5530 H   0  0  0  0  0  0  0  0  0  0  0  0
    1.6430   22.7590    0.2310 H   0  0  0  0  0  0  0  0  0  0  0  0
    1.5220   23.9150    1.5620 H   0  0  0  0  0  0  0  0  0  0  0  0
    0.1130   23.5690    0.5710 H   0  0  0  0  0  0  0  0  0  0  0  0
    2.1530   25.4570   -2.2840 H   0  0  0  0  0  0  0  0  0  0  0  0
    1.5680   22.7360   -2.2840 H   0  0  0  0  0  0  0  0  0  0  0  0
    3.1550   22.7710   -1.5780 H   0  0  0  0  0  0  0  0  0  0  0  0
    2.2550   24.0580   -4.1910 H   0  0  0  0  0  0  0  0  0  0  0  0
    3.1910   22.5970   -4.0860 H   0  0  0  0  0  0  0  0  0  0  0  0
    4.4620   24.2830   -1.7170 H   0  0  0  0  0  0  0  0  0  0  0  0
    6.9340   24.1160   -2.4580 H   0  0  0  0  0  0  0  0  0  0  0  0
    6.3920   25.3520   -1.2870 H   0  0  0  0  0  0  0  0  0  0  0  0
    7.6460   26.3870   -3.2870 H   0  0  0  0  0  0  0  0  0  0  0  0
    6.0290   26.9850   -3.0490 H   0  0  0  0  0  0  0  0  0  0  0  0
    6.2700   26.5550   -5.4290 H   0  0  0  0  0  0  0  0  0  0  0  0
    7.0780   25.1340   -5.0770 H   0  0  0  0  0  0  0  0  0  0  0  0
  1  2  2  0  0  0  0
  2  3  1  0  0  0  0
  4 38  1  6  0  0  0
  4  3  1  0  0  0  0
  4  8  1  0  0  0  0
  5 40  1  0  0  0  0
  5  4  1  0  0  0  0
  6 41  1  6  0  0  0
  6  2  1  0  0  0  0
  6  5  1  0  0  0  0
  7  6  1  0  0  0  0
  7 42  1  0  0  0  0
  7 44  1  0  0  0  0
  8  9  2  0  0  0  0
  8 14  1  0  0  0  0
  9 11  1  0  0  0  0
 10 45  1  0  0  0  0
 10  9  1  0  0  0  0
 11 15  1  0  0  0  0
 11 12  1  1  0  0  0
 12 13  1  6  0  0  0
 12 37  1  0  0  0  0
 13 50  1  0  0  0  0
 14 51  1  0  0  0  0
 14 13  1  0  0  0  0
 15 53  1  0  0  0  0
 15 16  2  0  0  0  0
 16 18  1  0  0  0  0
 17 16  1  0  0  0  0
 17 56  1  0  0  0  0
 18 57  1  1  0  0  0
 18 20  1  0  0  0  0
 19 18  1  0  0  0  0
 20 60  1  0  0  0  0
 20 59  1  0  0  0  0
 20 21  1  0  0  0  0
 21 61  1  0  0  0  0
 21 22  1  0  0  0  0
 22 63  1  6  0  0  0
 22 26  1  0  0  0  0
 22 23  1  0  0  0  0
 23 65  1  0  0  0  0
 23 64  1  0  0  0  0
 23 24  1  0  0  0  0
 24 27  1  6  0  0  0
 24 66  1  0  0  0  0
 24 25  1  0  0  0  0
 25 67  1  0  0  0  0
 25 68  1  0  0  0  0
 26 27  1  0  0  0  0
 27 70  1  1  0  0  0
 28 27  1  0  0  0  0
 28 29  1  0  0  0  0
 29 73  1  0  0  0  0
 29 72  1  0  0  0  0
 30 28  2  0  0  0  0
 31 76  1  0  0  0  0
 31 30  1  0  0  0  0
 32 31  1  0  0  0  0
 33 12  1  6  0  0  0
 33 32  1  0  0  0  0
 33 34  1  0  0  0  0
 34 35  1  0  0  0  0
 34 79  1  0  0  0  0
 35 81  1  0  0  0  0
 36 82  1  0  0  0  0
 36 83  1  0  0  0  0
 36 35  1  0  0  0  0
 37 36  1  0  0  0  0
 39  5  1  0  0  0  0
 43  7  1  0  0  0  0
 46 10  1  0  0  0  0
 47 10  1  0  0  0  0
 48 11  1  0  0  0  0
 49 13  1  0  0  0  0
 52 14  1  0  0  0  0
 54 17  1  0  0  0  0
 55 17  1  0  0  0  0
 58 19  1  0  0  0  0
 62 21  1  0  0  0  0
 69 25  1  0  0  0  0
 71 29  1  0  0  0  0
 74 30  1  0  0  0  0
 75 31  1  0  0  0  0
 77 32  1  0  0  0  0
 78 32  1  0  0  0  0
 80 35  1  0  0  0  0
 84 37  1  0  0  0  0
 85 37  1  0  0  0  0
M  CHG  1  34   1
M  END
$$$$
