3owj_ligand_rnum.pdb
 OpenBabel02151809393D

 35 38  0  0  0  0  0  0  0  0999 V2000
   23.2250    7.5970   11.3670 C   0  0  0  0  0  0  0  0  0  0  0  0
   23.3960    8.4820   10.3420 O   0  0  0  0  0  0  0  0  0  0  0  0
   23.1890    6.2250   11.0990 C   0  0  0  0  0  0  0  0  0  0  0  0
   23.0130    5.2980   12.1270 C   0  0  0  0  0  0  0  0  0  0  0  0
   22.8730    5.7600   13.4340 C   0  0  0  0  0  0  0  0  0  0  0  0
   22.9110    7.1200   13.6820 C   0  0  0  0  0  0  0  0  0  0  0  0
   23.0840    8.0650   12.6740 C   0  0  0  0  0  0  0  0  0  0  0  0
   22.6900    5.1540   14.6510 N   0  0  0  0  0  0  0  0  0  0  0  0
   22.6040    6.0560   15.6850 C   0  0  0  0  0  0  0  0  0  0  0  0
   22.7390    7.3130   15.1260 C   0  0  0  0  0  0  0  0  0  0  0  0
   22.4210    5.9360   17.0590 C   0  0  0  0  0  0  0  0  0  0  0  0
   22.2750    4.5600   17.6680 C   0  0  0  0  0  0  0  0  0  0  0  0
   22.3800    7.0930   17.8500 C   0  0  0  0  0  0  0  0  0  0  0  0
   22.5210    8.3740   17.2730 C   0  0  0  0  0  0  0  0  0  0  0  0
   22.7040    8.4920   15.8790 C   0  0  0  0  0  0  0  0  0  0  0  0
   22.8640    9.8340   15.1940 C   0  0  0  0  0  0  0  0  0  0  0  0
   22.2020    6.9820   19.2320 C   0  0  0  0  0  0  0  0  0  0  0  0
   22.1610    8.1280   20.0230 C   0  0  0  0  0  0  0  0  0  0  0  0
   22.2930    9.3410   19.4580 N   0  0  0  0  0  0  0  0  0  0  0  0
   22.4700    9.4920   18.1310 C   0  0  0  0  0  0  0  0  0  0  0  0
   22.5930   10.7620   17.6490 O   0  0  0  0  0  0  0  0  0  0  0  0
   23.4840    8.0490    9.5060 H   0  0  0  0  0  0  0  0  0  0  0  0
   23.3030    5.8720   10.0840 H   0  0  0  0  0  0  0  0  0  0  0  0
   22.9880    4.2400   11.9110 H   0  0  0  0  0  0  0  0  0  0  0  0
   23.0450    9.1320   12.7790 H   0  0  0  0  0  0  0  0  0  0  0  0
   22.6230    4.1550   14.7730 H   0  0  0  0  0  0  0  0  0  0  0  0
   21.2820    4.4430   18.1030 H   0  0  0  0  0  0  0  0  0  0  0  0
   22.3940    3.7730   16.9240 H   0  0  0  0  0  0  0  0  0  0  0  0
   23.0170    4.3770   18.4450 H   0  0  0  0  0  0  0  0  0  0  0  0
   23.3620   10.6790   15.6460 H   0  0  0  0  0  0  0  0  0  0  0  0
   23.6930    9.6890   14.5150 H   0  0  0  0  0  0  0  0  0  0  0  0
   21.9870   10.1630   14.6430 H   0  0  0  0  0  0  0  0  0  0  0  0
   22.0900    6.0180   19.7030 H   0  0  0  0  0  0  0  0  0  0  0  0
   22.0260    8.1360   21.0950 H   0  0  0  0  0  0  0  0  0  0  0  0
   22.2450   10.1550   20.0530 H   0  0  0  0  0  0  0  0  0  0  0  0
  1  7  1  0  0  0  0
  2  1  1  0  0  0  0
  3  1  2  0  0  0  0
  3  4  1  0  0  0  0
  4  5  2  0  0  0  0
  5  6  1  0  0  0  0
  5  8  1  0  0  0  0
  6 10  1  0  0  0  0
  7 25  1  0  0  0  0
  7  6  2  0  0  0  0
  8 26  1  0  0  0  0
  8  9  1  0  0  0  0
  9 11  1  0  0  0  0
 10  9  2  0  0  0  0
 10 15  1  0  0  0  0
 11 12  1  0  0  0  0
 11 13  2  0  0  0  0
 12 27  1  0  0  0  0
 12 29  1  0  0  0  0
 13 17  1  0  0  0  0
 14 13  1  0  0  0  0
 14 20  1  0  0  0  0
 15 14  2  0  0  0  0
 16 30  1  0  0  0  0
 16 15  1  0  0  0  0
 17 33  1  0  0  0  0
 17 18  2  0  0  0  0
 18 34  1  0  0  0  0
 19 18  1  0  0  0  0
 19 35  1  0  0  0  0
 20 19  1  0  0  0  0
 21 20  2  0  0  0  0
 22  2  1  0  0  0  0
 23  3  1  0  0  0  0
 24  4  1  0  0  0  0
 28 12  1  0  0  0  0
 31 16  1  0  0  0  0
 32 16  1  0  0  0  0
M  END
$$$$
