3acw_ligand_rnum.pdb
 OpenBabel02151809393D

 43 46  0  0  1  0  0  0  0  0999 V2000
   54.8850   12.3290   53.3370 O   0  0  0  0  0  0  0  0  0  0  0  0
   57.7110   21.0050   53.2580 C   0  0  0  0  0  0  0  0  0  0  0  0
   57.9630   20.1180   54.3060 C   0  0  0  0  0  0  0  0  0  0  0  0
   57.1980   20.4670   52.0800 C   0  0  0  0  0  0  0  0  0  0  0  0
   57.6930   18.7580   54.1550 C   0  0  0  0  0  0  0  0  0  0  0  0
   56.9110   19.1060   51.9570 C   0  0  0  0  0  0  0  0  0  0  0  0
   56.3040   16.3200   51.7220 C   0  0  0  0  0  0  0  0  0  0  0  0
   57.1270   15.9370   53.8960 C   0  0  0  0  0  0  0  0  0  0  0  0
   56.0250   14.9650   51.5700 C   0  0  0  0  0  0  0  0  0  0  0  0
   56.8350   14.5770   53.7630 C   0  0  0  0  0  0  0  0  0  0  0  0
   58.2670   11.6770   51.8540 C   0  0  0  0  0  0  0  0  0  0  0  0
   56.7100   10.2160   52.9660 C   0  0  0  0  0  0  0  0  0  0  0  0
   57.7060   11.0780   50.5680 C   0  0  0  0  0  0  0  0  0  0  0  0
   55.9580    9.8540   51.6870 C   0  0  0  0  0  0  0  0  0  0  0  0
   55.5750   12.1650   51.0450 C   0  0  0  0  0  0  0  0  0  0  0  0
   57.1490   18.2100   52.9940 C   0  0  0  0  0  0  0  0  0  0  0  0
   56.8700   16.8530   52.8770 C   0  0  0  0  0  0  0  0  0  0  0  0
   56.2990   14.0520   52.5850 C   0  0  0  0  0  0  0  0  0  0  0  0
   57.1380   11.6770   52.8780 C   0  0  2  0  0  0  0  0  0  0  0  0
   56.2470   10.8960   50.6860 N   0  3  1  0  0  0  0  0  0  0  0  0
   55.9840   12.5840   52.4560 C   0  0  1  0  0  0  0  0  0  0  0  0
   55.1500   12.5460   54.2180 H   0  0  0  0  0  0  0  0  0  0  0  0
   57.9080   22.0630   53.3550 H   0  0  0  0  0  0  0  0  0  0  0  0
   58.3270   20.5260   55.2310 H   0  0  0  0  0  0  0  0  0  0  0  0
   57.0000   21.1270   51.2510 H   0  0  0  0  0  0  0  0  0  0  0  0
   57.9110   18.1620   55.0240 H   0  0  0  0  0  0  0  0  0  0  0  0
   56.5130   18.8170   51.0000 H   0  0  0  0  0  0  0  0  0  0  0  0
   55.9790   16.9320   50.9010 H   0  0  0  0  0  0  0  0  0  0  0  0
   57.5560   16.2210   54.8420 H   0  0  0  0  0  0  0  0  0  0  0  0
   55.5190   14.7080   50.6570 H   0  0  0  0  0  0  0  0  0  0  0  0
   57.0450   13.9330   54.6030 H   0  0  0  0  0  0  0  0  0  0  0  0
   58.6050   12.6990   51.6940 H   0  0  0  0  0  0  0  0  0  0  0  0
   59.1320   11.1040   52.1870 H   0  0  0  0  0  0  0  0  0  0  0  0
   57.5440    9.5420   53.1700 H   0  0  0  0  0  0  0  0  0  0  0  0
   56.0040   10.1530   53.7810 H   0  0  0  0  0  0  0  0  0  0  0  0
   58.1850   10.1290   50.3370 H   0  0  0  0  0  0  0  0  0  0  0  0
   57.9190   11.7410   49.7310 H   0  0  0  0  0  0  0  0  0  0  0  0
   54.8820    9.8050   51.8620 H   0  0  0  0  0  0  0  0  0  0  0  0
   56.2520    8.8730   51.3210 H   0  0  0  0  0  0  0  0  0  0  0  0
   54.4930   12.1050   50.9150 H   0  0  0  0  0  0  0  0  0  0  0  0
   55.9510   12.8130   50.2640 H   0  0  0  0  0  0  0  0  0  0  0  0
   57.4980   11.9620   53.8600 H   0  0  0  0  0  0  0  0  0  0  0  0
   55.8960   10.5880   49.7860 H   0  0  0  0  0  0  0  0  0  0  0  0
  1 22  1  0  0  0  0
  2 23  1  0  0  0  0
  2  3  2  0  0  0  0
  3 24  1  0  0  0  0
  4  2  1  0  0  0  0
  5  3  1  0  0  0  0
  5 26  1  0  0  0  0
  6  4  2  0  0  0  0
  6 16  1  0  0  0  0
  7 17  1  0  0  0  0
  8 29  1  0  0  0  0
  9  7  2  0  0  0  0
  9 18  1  0  0  0  0
 10  8  1  0  0  0  0
 10 31  1  0  0  0  0
 11 33  1  0  0  0  0
 11 19  1  0  0  0  0
 12 34  1  0  0  0  0
 12 35  1  0  0  0  0
 13 20  1  0  0  0  0
 13 11  1  0  0  0  0
 14 38  1  0  0  0  0
 14 12  1  0  0  0  0
 15 21  1  0  0  0  0
 16  5  2  0  0  0  0
 17 16  1  0  0  0  0
 17  8  2  0  0  0  0
 18 10  2  0  0  0  0
 19 12  1  0  0  0  0
 19 42  1  1  0  0  0
 20 43  1  6  0  0  0
 20 15  1  0  0  0  0
 20 14  1  0  0  0  0
 21 18  1  0  0  0  0
 21 19  1  1  0  0  0
 21  1  1  0  0  0  0
 25  4  1  0  0  0  0
 27  6  1  0  0  0  0
 28  7  1  0  0  0  0
 30  9  1  0  0  0  0
 32 11  1  0  0  0  0
 36 13  1  0  0  0  0
 37 13  1  0  0  0  0
 39 14  1  0  0  0  0
 40 15  1  0  0  0  0
 41 15  1  0  0  0  0
M  CHG  1  20   1
M  END
$$$$
