3huc_ligand_rnum.pdb
 OpenBabel02151809393D

 43 46  0  0  1  0  0  0  0  0999 V2000
   24.7520   -1.9090  -20.8760 C   0  0  0  0  0  0  0  0  0  0  0  0
   25.3510   -2.9980  -21.5080 C   0  0  0  0  0  0  0  0  0  0  0  0
   24.8970   -4.2750  -21.2010 C   0  0  0  0  0  0  0  0  0  0  0  0
   23.8760   -4.4740  -20.2690 C   0  0  0  0  0  0  0  0  0  0  0  0
   23.2760   -3.3800  -19.6380 C   0  0  0  0  0  0  0  0  0  0  0  0
   23.7150   -2.0910  -19.9500 C   0  0  0  0  0  0  0  0  0  0  0  0
   23.1530   -0.9930  -19.3060 C   0  0  0  0  0  0  0  0  0  0  0  0
   23.0020    0.1980  -19.9310 N   0  0  0  0  0  0  0  0  0  0  0  0
   22.7970   -1.1460  -18.0150 N   0  0  0  0  0  0  0  0  0  0  0  0
   22.2710   -0.1250  -17.3250 C   0  0  0  0  0  0  0  0  0  0  0  0
   21.9000   -0.3240  -15.9950 C   0  0  0  0  0  0  0  0  0  0  0  0
   21.3380    0.7140  -15.2550 C   0  0  0  0  0  0  0  0  0  0  0  0
   21.0190    0.4530  -13.9710 N   0  0  0  0  0  0  0  0  0  0  0  0
   20.1930    1.1450  -13.1760 C   0  0  0  0  0  0  0  0  0  0  0  0
   19.5700    2.1540  -13.5240 O   0  0  0  0  0  0  0  0  0  0  0  0
   20.0260    0.6750  -11.8710 C   0  0  0  0  0  0  0  0  0  0  0  0
   19.1830    1.3240  -10.9700 C   0  0  0  0  0  0  0  0  0  0  0  0
   21.1580    1.9670  -15.8690 C   0  0  0  0  0  0  0  0  0  0  0  0
   21.5350    2.1660  -17.2050 C   0  0  0  0  0  0  0  0  0  0  0  0
   22.0950    1.1170  -17.9450 C   0  0  0  0  0  0  0  0  0  0  0  0
   22.4780    1.2630  -19.2890 C   0  0  1  0  0  0  0  0  0  0  0  0
   22.3330    2.4370  -19.9390 N   0  0  0  0  0  0  0  0  0  0  0  0
   22.4610    2.5860  -21.2810 C   0  0  0  0  0  0  0  0  0  0  0  0
   22.5710    3.7560  -21.9050 C   0  0  0  0  0  0  0  0  0  0  0  0
   22.6670    3.4550  -23.2030 C   0  0  0  0  0  0  0  0  0  0  0  0
   22.6040    2.1190  -23.3250 N   0  0  0  0  0  0  0  0  0  0  0  0
   22.4840    1.6090  -22.2000 N   0  0  0  0  0  0  0  0  0  0  0  0
   25.1090   -0.9160  -21.1080 H   0  0  0  0  0  0  0  0  0  0  0  0
   26.1530   -2.8550  -22.2140 H   0  0  0  0  0  0  0  0  0  0  0  0
   25.3480   -5.1290  -21.6850 H   0  0  0  0  0  0  0  0  0  0  0  0
   23.5400   -5.4740  -20.0460 H   0  0  0  0  0  0  0  0  0  0  0  0
   22.4770   -3.5520  -18.9300 H   0  0  0  0  0  0  0  0  0  0  0  0
   22.0310   -1.2960  -15.5440 H   0  0  0  0  0  0  0  0  0  0  0  0
   21.4070   -0.3940  -13.5840 H   0  0  0  0  0  0  0  0  0  0  0  0
   20.5540   -0.2100  -11.5440 H   0  0  0  0  0  0  0  0  0  0  0  0
   19.0680    0.9440   -9.9660 H   0  0  0  0  0  0  0  0  0  0  0  0
   18.6230    2.2120  -11.2300 H   0  0  0  0  0  0  0  0  0  0  0  0
   20.7760    2.8320  -15.3540 H   0  0  0  0  0  0  0  0  0  0  0  0
   21.3870    3.1430  -17.6390 H   0  0  0  0  0  0  0  0  0  0  0  0
   22.1320    3.2470  -19.3730 H   0  0  0  0  0  0  0  0  0  0  0  0
   22.5830    4.7360  -21.4510 H   0  0  0  0  0  0  0  0  0  0  0  0
   22.7740    4.0900  -24.0700 H   0  0  0  0  0  0  0  0  0  0  0  0
   22.4350    0.6130  -22.0350 H   0  0  0  0  0  0  0  0  0  0  0  0
  1  6  2  0  0  0  0
  2  3  2  0  0  0  0
  2  1  1  0  0  0  0
  3  4  1  0  0  0  0
  4 31  1  0  0  0  0
  4  5  2  0  0  0  0
  5 32  1  0  0  0  0
  6  5  1  0  0  0  0
  6  7  1  0  0  0  0
  7  9  1  0  0  0  0
  8  7  2  0  0  0  0
  8 21  1  0  0  0  0
  9 10  1  0  0  0  0
 10 11  1  0  0  0  0
 11 33  1  0  0  0  0
 11 12  2  0  0  0  0
 12 13  1  0  0  0  0
 13 34  1  0  0  0  0
 13 14  1  0  0  0  0
 14 16  1  0  0  0  0
 15 14  2  0  0  0  0
 16 35  1  0  0  0  0
 16 17  2  0  0  0  0
 17 36  1  0  0  0  0
 18 38  1  0  0  0  0
 18 12  1  0  0  0  0
 19 18  2  0  0  0  0
 20 10  2  0  0  0  0
 20 19  1  0  0  0  0
 21 22  1  1  0  0  0
 21 20  1  0  0  0  0
 22 40  1  0  0  0  0
 23 22  1  0  0  0  0
 24 41  1  0  0  0  0
 24 23  2  0  0  0  0
 25 24  1  0  0  0  0
 26 25  2  0  0  0  0
 26 27  1  0  0  0  0
 27 43  1  0  0  0  0
 27 23  1  0  0  0  0
 28  1  1  0  0  0  0
 29  2  1  0  0  0  0
 30  3  1  0  0  0  0
 37 17  1  0  0  0  0
 39 19  1  0  0  0  0
 42 25  1  0  0  0  0
M  END
$$$$
