2qmj_ligand_rnum.pdb
 OpenBabel02151809393D

 88 91  0  0  1  0  0  0  0  0999 V2000
  -19.6710   -5.9900  -10.6110 C   0  0  2  0  0  0  0  0  0  0  0  0
  -20.7300   -5.6830  -11.6900 C   0  0  1  0  0  0  0  0  0  0  0  0
  -21.5600   -6.9360  -11.9710 C   0  0  2  0  0  0  0  0  0  0  0  0
  -20.6670   -7.9640  -12.6390 C   0  0  1  0  0  0  0  0  0  0  0  0
  -19.3470   -8.1050  -11.9110 C   0  0  0  0  0  0  0  0  0  0  0  0
  -18.5890   -9.3680  -12.1800 C   0  0  0  0  0  0  0  0  0  0  0  0
  -18.8330   -7.1680  -11.0990 C   0  0  0  0  0  0  0  0  0  0  0  0
  -21.5980   -4.6430  -11.2610 O   0  0  0  0  0  0  0  0  0  0  0  0
  -22.7950   -6.7250  -12.7430 O   0  0  0  0  0  0  0  0  0  0  0  0
  -21.3410   -9.2220  -12.6550 O   0  0  0  0  0  0  0  0  0  0  0  0
  -17.8570   -9.0520  -13.3800 O   0  0  0  0  0  0  0  0  0  0  0  0
  -18.2170   -6.7430   -5.3860 C   0  0  2  0  0  0  0  0  0  0  0  0
  -17.8400   -5.5560   -6.2710 C   0  0  1  0  0  0  0  0  0  0  0  0
  -18.9740   -5.2480   -7.2620 C   0  0  2  0  0  0  0  0  0  0  0  0
  -19.2400   -6.4670   -8.1460 C   0  0  1  0  0  0  0  0  0  0  0  0
  -19.5940   -7.6510   -7.2210 C   0  0  1  0  0  0  0  0  0  0  0  0
  -19.7630   -8.9570   -7.9900 C   0  0  0  0  0  0  0  0  0  0  0  0
  -20.2000   -6.1770   -9.2330 N   0  3  0  0  0  0  0  0  0  0  0  0
  -17.6240   -4.4180   -5.4390 O   0  0  0  0  0  0  0  0  0  0  0  0
  -18.6180   -4.1570   -8.1040 O   0  0  0  0  0  0  0  0  0  0  0  0
  -18.5410   -7.8430   -6.2420 O   0  0  0  0  0  0  0  0  0  0  0  0
  -21.0570   -7.7380   -0.9580 C   0  0  2  0  0  0  0  0  0  0  0  0
  -19.5340   -7.7390   -1.0400 C   0  0  1  0  0  0  0  0  0  0  0  0
  -19.0200   -6.9610   -2.2550 C   0  0  2  0  0  0  0  0  0  0  0  0
  -19.7220   -7.3380   -3.5600 C   0  0  1  0  0  0  0  0  0  0  0  0
  -21.2420   -7.3380   -3.3630 C   0  0  1  0  0  0  0  0  0  0  0  0
  -21.9950   -7.8540   -4.5850 C   0  0  0  0  0  0  0  0  0  0  0  0
  -19.0400   -7.0610    0.1090 O   0  0  0  0  0  0  0  0  0  0  0  0
  -17.6040   -7.1280   -2.4050 O   0  0  0  0  0  0  0  0  0  0  0  0
  -19.3450   -6.3910   -4.5600 O   0  0  0  0  0  0  0  0  0  0  0  0
  -21.5930   -8.1540   -2.2260 O   0  0  0  0  0  0  0  0  0  0  0  0
  -23.3970   -7.9360   -4.2880 O   0  0  0  0  0  0  0  0  0  0  0  0
  -24.4360   -4.5400    1.8350 C   0  0  1  0  0  0  0  0  0  0  0  0
  -22.9600   -4.6230    2.3060 C   0  0  1  0  0  0  0  0  0  0  0  0
  -21.9930   -5.0600    1.1990 C   0  0  2  0  0  0  0  0  0  0  0  0
  -22.4870   -6.2690    0.3980 C   0  0  1  0  0  0  0  0  0  0  0  0
  -23.9070   -5.9410   -0.1210 C   0  0  1  0  0  0  0  0  0  0  0  0
  -24.5410   -7.0460   -0.9710 C   0  0  0  0  0  0  0  0  0  0  0  0
  -24.7250   -3.2780    1.2080 O   0  0  0  0  0  0  0  0  0  0  0  0
  -22.4900   -3.3600    2.8190 O   0  0  0  0  0  0  0  0  0  0  0  0
  -20.6790   -5.3120    1.7380 O   0  0  0  0  0  0  0  0  0  0  0  0
  -21.5170   -6.4160   -0.6480 O   0  0  0  0  0  0  0  0  0  0  0  0
  -24.8190   -5.6180    0.9550 O   0  0  0  0  0  0  0  0  0  0  0  0
  -25.8490   -6.6220   -1.3960 O   0  0  0  0  0  0  0  0  0  0  0  0
  -18.9880   -5.1450  -10.5790 H   0  0  0  0  0  0  0  0  0  0  0  0
  -20.3700   -5.3540  -12.6410 H   0  0  0  0  0  0  0  0  0  0  0  0
  -21.9000   -7.3400  -11.0160 H   0  0  0  0  0  0  0  0  0  0  0  0
  -20.4610   -7.6750  -13.6710 H   0  0  0  0  0  0  0  0  0  0  0  0
  -19.1910  -10.2660  -12.2940 H   0  0  0  0  0  0  0  0  0  0  0  0
  -17.8740   -9.5630  -11.3790 H   0  0  0  0  0  0  0  0  0  0  0  0
  -17.8550   -7.2980  -10.6940 H   0  0  0  0  0  0  0  0  0  0  0  0
  -22.2210   -4.9890  -10.6230 H   0  0  0  0  0  0  0  0  0  0  0  0
  -23.2280   -7.5630  -12.8450 H   0  0  0  0  0  0  0  0  0  0  0  0
  -21.0670   -9.7380  -13.4130 H   0  0  0  0  0  0  0  0  0  0  0  0
  -18.2560   -9.5400  -14.1000 H   0  0  0  0  0  0  0  0  0  0  0  0
  -17.3560   -7.0430   -4.7960 H   0  0  0  0  0  0  0  0  0  0  0  0
  -16.9160   -5.7940   -6.8010 H   0  0  0  0  0  0  0  0  0  0  0  0
  -19.8690   -4.9730   -6.7060 H   0  0  0  0  0  0  0  0  0  0  0  0
  -18.2930   -6.7120   -8.6040 H   0  0  0  0  0  0  0  0  0  0  0  0
  -20.5280   -7.4240   -6.7400 H   0  0  0  0  0  0  0  0  0  0  0  0
  -20.0900   -9.7600   -7.3300 H   0  0  0  0  0  0  0  0  0  0  0  0
  -20.4960   -8.8570   -8.7860 H   0  0  0  0  0  0  0  0  0  0  0  0
  -18.8240   -9.2630   -8.4510 H   0  0  0  0  0  0  0  0  0  0  0  0
  -20.8550   -6.9440   -9.2710 H   0  0  0  0  0  0  0  0  0  0  0  0
  -20.7300   -5.3540   -8.9610 H   0  0  0  0  0  0  0  0  0  0  0  0
  -17.3790   -3.6790   -5.9820 H   0  0  0  0  0  0  0  0  0  0  0  0
  -18.5200   -3.3850   -7.5560 H   0  0  0  0  0  0  0  0  0  0  0  0
  -21.3880   -8.4550   -0.2060 H   0  0  0  0  0  0  0  0  0  0  0  0
  -19.1850   -8.7720   -1.0640 H   0  0  0  0  0  0  0  0  0  0  0  0
  -19.2030   -5.8980   -2.0830 H   0  0  0  0  0  0  0  0  0  0  0  0
  -19.4230   -8.3460   -3.8540 H   0  0  0  0  0  0  0  0  0  0  0  0
  -21.5780   -6.3180   -3.1660 H   0  0  0  0  0  0  0  0  0  0  0  0
  -21.6200   -8.8140   -4.9410 H   0  0  0  0  0  0  0  0  0  0  0  0
  -21.9420   -7.1130   -5.3750 H   0  0  0  0  0  0  0  0  0  0  0  0
  -18.0970   -7.0290    0.0400 H   0  0  0  0  0  0  0  0  0  0  0  0
  -17.2950   -6.4780   -3.0180 H   0  0  0  0  0  0  0  0  0  0  0  0
  -23.5080   -8.5030   -3.5400 H   0  0  0  0  0  0  0  0  0  0  0  0
  -25.0990   -4.5920    2.6990 H   0  0  0  0  0  0  0  0  0  0  0  0
  -22.9250   -5.3630    3.1070 H   0  0  0  0  0  0  0  0  0  0  0  0
  -21.8860   -4.2290    0.4980 H   0  0  0  0  0  0  0  0  0  0  0  0
  -22.5210   -7.1380    1.0570 H   0  0  0  0  0  0  0  0  0  0  0  0
  -23.8320   -5.0600   -0.7520 H   0  0  0  0  0  0  0  0  0  0  0  0
  -24.6290   -7.9710   -0.4010 H   0  0  0  0  0  0  0  0  0  0  0  0
  -23.9370   -7.2520   -1.8490 H   0  0  0  0  0  0  0  0  0  0  0  0
  -23.9440   -2.7480    1.2810 H   0  0  0  0  0  0  0  0  0  0  0  0
  -21.5820   -3.4690    3.0640 H   0  0  0  0  0  0  0  0  0  0  0  0
  -20.1550   -5.7250    1.0630 H   0  0  0  0  0  0  0  0  0  0  0  0
  -26.3360   -6.3540   -0.6310 H   0  0  0  0  0  0  0  0  0  0  0  0
  1  2  1  6  0  0  0
  1 45  1  0  0  0  0
  1 18  1  0  0  0  0
  2  3  1  6  0  0  0
  2  8  1  0  0  0  0
  3  4  1  6  0  0  0
  3 47  1  0  0  0  0
  4 48  1  6  0  0  0
  4  5  1  0  0  0  0
  5  7  2  0  0  0  0
  6  5  1  0  0  0  0
  6 50  1  0  0  0  0
  7 51  1  0  0  0  0
  7  1  1  0  0  0  0
  8 52  1  0  0  0  0
  9  3  1  0  0  0  0
 10  4  1  0  0  0  0
 11  6  1  0  0  0  0
 12 13  1  6  0  0  0
 12 56  1  0  0  0  0
 12 30  1  0  0  0  0
 13 14  1  6  0  0  0
 13 19  1  0  0  0  0
 14 15  1  6  0  0  0
 14 58  1  0  0  0  0
 15 16  1  1  0  0  0
 16 60  1  1  0  0  0
 16 21  1  0  0  0  0
 17 61  1  0  0  0  0
 17 16  1  0  0  0  0
 18 65  1  0  0  0  0
 18 15  1  0  0  0  0
 20 67  1  0  0  0  0
 20 14  1  0  0  0  0
 21 12  1  0  0  0  0
 22 23  1  6  0  0  0
 22 42  1  0  0  0  0
 22 68  1  0  0  0  0
 23 24  1  6  0  0  0
 23 28  1  0  0  0  0
 24 25  1  6  0  0  0
 24 70  1  0  0  0  0
 25 26  1  1  0  0  0
 26 72  1  1  0  0  0
 26 31  1  0  0  0  0
 27 32  1  0  0  0  0
 27 26  1  0  0  0  0
 29 24  1  0  0  0  0
 30 25  1  0  0  0  0
 31 22  1  0  0  0  0
 32 77  1  0  0  0  0
 33 34  1  1  0  0  0
 33 78  1  0  0  0  0
 34 35  1  6  0  0  0
 34 40  1  0  0  0  0
 34 79  1  0  0  0  0
 35 36  1  6  0  0  0
 35 41  1  0  0  0  0
 36 37  1  6  0  0  0
 36 81  1  0  0  0  0
 37 82  1  6  0  0  0
 37 43  1  0  0  0  0
 38 83  1  0  0  0  0
 38 37  1  0  0  0  0
 39 85  1  0  0  0  0
 39 33  1  0  0  0  0
 40 86  1  0  0  0  0
 42 36  1  0  0  0  0
 43 33  1  0  0  0  0
 44 38  1  0  0  0  0
 44 88  1  0  0  0  0
 46  2  1  0  0  0  0
 49  6  1  0  0  0  0
 53  9  1  0  0  0  0
 54 10  1  0  0  0  0
 55 11  1  0  0  0  0
 57 13  1  0  0  0  0
 59 15  1  0  0  0  0
 62 17  1  0  0  0  0
 63 17  1  0  0  0  0
 64 18  1  0  0  0  0
 66 19  1  0  0  0  0
 69 23  1  0  0  0  0
 71 25  1  0  0  0  0
 73 27  1  0  0  0  0
 74 27  1  0  0  0  0
 75 28  1  0  0  0  0
 76 29  1  0  0  0  0
 80 35  1  0  0  0  0
 84 38  1  0  0  0  0
 87 41  1  0  0  0  0
M  CHG  1  18   1
M  END
$$$$
