1bcu_ligand_rnum.pdb
 OpenBabel02151809393D

 28 30  0  0  0  0  0  0  0  0999 V2000
    8.9820   23.1820   49.5160 C   0  0  0  0  0  0  0  0  0  0  0  0
    9.6700   23.6490   48.4750 C   0  0  0  0  0  0  0  0  0  0  0  0
   10.6650   22.8510   47.7940 C   0  0  0  0  0  0  0  0  0  0  0  0
   10.9020   21.5730   48.2640 C   0  0  0  0  0  0  0  0  0  0  0  0
    9.9390   17.8640   51.1430 C   0  0  0  0  0  0  0  0  0  0  0  0
    9.2310   17.2530   52.1630 C   0  0  0  0  0  0  0  0  0  0  0  0
    8.2220   18.0300   52.8520 C   0  0  0  0  0  0  0  0  0  0  0  0
    7.9680   19.2990   52.5280 C   0  0  0  0  0  0  0  0  0  0  0  0
    8.4750   21.2720   51.0580 C   0  0  0  0  0  0  0  0  0  0  0  0
   10.3850   19.7760   49.7680 N   0  3  0  0  0  0  0  0  0  0  0  0
   10.1960   21.0700   49.3360 C   0  0  0  0  0  0  0  0  0  0  0  0
    8.6900   19.9650   51.4640 C   0  0  0  0  0  0  0  0  0  0  0  0
    9.1900   21.8460   50.0200 C   0  0  0  0  0  0  0  0  0  0  0  0
    9.6910   19.1730   50.7930 C   0  0  0  0  0  0  0  0  0  0  0  0
   11.2740   23.3260   46.6840 N   0  0  0  0  0  0  0  0  0  0  0  0
    9.4530   15.9620   52.5020 N   0  0  0  0  0  0  0  0  0  0  0  0
    8.2340   23.8130   49.9740 H   0  0  0  0  0  0  0  0  0  0  0  0
    9.4470   24.6380   48.1050 H   0  0  0  0  0  0  0  0  0  0  0  0
   11.6330   20.9540   47.7630 H   0  0  0  0  0  0  0  0  0  0  0  0
   10.6950   17.3040   50.6090 H   0  0  0  0  0  0  0  0  0  0  0  0
    7.6590   17.5740   53.6540 H   0  0  0  0  0  0  0  0  0  0  0  0
    7.2060   19.8370   53.0720 H   0  0  0  0  0  0  0  0  0  0  0  0
    7.7180   21.8590   51.5580 H   0  0  0  0  0  0  0  0  0  0  0  0
   11.0830   19.2180   49.2750 H   0  0  0  0  0  0  0  0  0  0  0  0
   12.1280   22.8910   46.3480 H   0  0  0  0  0  0  0  0  0  0  0  0
   11.2050   24.3100   46.4700 H   0  0  0  0  0  0  0  0  0  0  0  0
    9.1220   15.6380   53.4010 H   0  0  0  0  0  0  0  0  0  0  0  0
   10.2870   15.5020   52.1660 H   0  0  0  0  0  0  0  0  0  0  0  0
  1 17  1  0  0  0  0
  1 13  1  0  0  0  0
  2  1  2  0  0  0  0
  3  4  2  0  0  0  0
  3  2  1  0  0  0  0
  4 11  1  0  0  0  0
  5  6  1  0  0  0  0
  6 16  1  0  0  0  0
  6  7  2  0  0  0  0
  7 21  1  0  0  0  0
  8  7  1  0  0  0  0
  8 22  1  0  0  0  0
  9 12  1  0  0  0  0
  9 23  1  0  0  0  0
 10 14  1  0  0  0  0
 11 10  2  0  0  0  0
 11 13  1  0  0  0  0
 12  8  2  0  0  0  0
 13  9  2  0  0  0  0
 14  5  2  0  0  0  0
 14 12  1  0  0  0  0
 15  3  1  0  0  0  0
 16 27  1  0  0  0  0
 18  2  1  0  0  0  0
 19  4  1  0  0  0  0
 20  5  1  0  0  0  0
 24 10  1  0  0  0  0
 25 15  1  0  0  0  0
 26 15  1  0  0  0  0
 28 16  1  0  0  0  0
M  CHG  1  10   1
M  END
$$$$
