3l4u_ligand_rnum.pdb
 OpenBabel02151809393D

 47 47  0  0  1  0  0  0  0  0999 V2000
   -4.5820  -25.9270  -24.4060 O   0  0  0  0  0  0  0  0  0  0  0  0
   -3.5630  -14.2880  -18.6810 O   0  0  0  0  0  0  0  0  0  0  0  0
   -2.5250  -23.7780  -24.6300 O   0  0  0  0  0  0  0  0  0  0  0  0
   -1.8400  -19.0670  -22.8410 O   0  0  0  0  0  0  0  0  0  0  0  0
    1.1590  -14.8040  -20.9000 O   0  0  0  0  0  0  0  0  0  0  0  0
   -1.8620  -23.6130  -21.9840 O   0  0  0  0  0  0  0  0  0  0  0  0
   -3.4230  -21.1230  -20.3290 O   0  0  0  0  0  0  0  0  0  0  0  0
   -4.3410  -21.1410  -22.9860 O   0  0  0  0  0  0  0  0  0  0  0  0
    0.1390  -14.8610  -18.2440 O   0  0  0  0  0  0  0  0  0  0  0  0
   -3.8410  -25.3650  -23.3360 C   0  0  0  0  0  0  0  0  0  0  0  0
   -3.0400  -15.5240  -18.1840 C   0  0  0  0  0  0  0  0  0  0  0  0
   -1.9870  -18.5410  -20.4420 C   0  0  0  0  0  0  0  0  0  0  0  0
   -0.9410  -15.9610  -21.6020 C   0  0  0  0  0  0  0  0  0  0  0  0
   -3.5770  -23.8890  -23.6600 C   0  0  1  0  0  0  0  0  0  0  0  0
   -2.5440  -19.3660  -21.6440 C   0  0  2  0  0  0  0  0  0  0  0  0
    0.0950  -15.7140  -20.4860 C   0  0  2  0  0  0  0  0  0  0  0  0
   -3.1560  -23.1410  -22.3760 C   0  0  2  0  0  0  0  0  0  0  0  0
   -2.5020  -20.8730  -21.4050 C   0  0  2  0  0  0  0  0  0  0  0  0
   -3.0520  -21.6390  -22.6310 C   0  0  2  0  0  0  0  0  0  0  0  0
   -0.7410  -15.0460  -19.3600 C   0  0  1  0  0  0  0  0  0  0  0  0
   -1.8490  -16.0810  -19.0120 C   0  0  2  0  0  0  0  0  0  0  0  0
   -2.2940  -16.7690  -20.6530 S   0  3  2  0  0  0  0  0  0  0  0  0
   -4.0880  -25.7890  -25.2000 H   0  0  0  0  0  0  0  0  0  0  0  0
   -3.1550  -13.5790  -18.1930 H   0  0  0  0  0  0  0  0  0  0  0  0
   -2.5250  -22.8960  -24.9850 H   0  0  0  0  0  0  0  0  0  0  0  0
   -0.9430  -19.4030  -22.7700 H   0  0  0  0  0  0  0  0  0  0  0  0
    1.6990  -14.6290  -20.1410 H   0  0  0  0  0  0  0  0  0  0  0  0
   -1.2930  -23.5510  -22.7380 H   0  0  0  0  0  0  0  0  0  0  0  0
   -4.2970  -20.9870  -20.6670 H   0  0  0  0  0  0  0  0  0  0  0  0
   -4.3500  -20.9460  -23.9200 H   0  0  0  0  0  0  0  0  0  0  0  0
   -0.2150  -14.1950  -17.6510 H   0  0  0  0  0  0  0  0  0  0  0  0
   -2.9140  -25.9190  -23.1820 H   0  0  0  0  0  0  0  0  0  0  0  0
   -4.4400  -25.4670  -22.4300 H   0  0  0  0  0  0  0  0  0  0  0  0
   -3.8440  -16.2580  -18.1380 H   0  0  0  0  0  0  0  0  0  0  0  0
   -2.7220  -15.3540  -17.1560 H   0  0  0  0  0  0  0  0  0  0  0  0
   -0.9220  -18.7210  -20.2930 H   0  0  0  0  0  0  0  0  0  0  0  0
   -2.4910  -18.8430  -19.5240 H   0  0  0  0  0  0  0  0  0  0  0  0
   -0.5620  -16.6210  -22.3800 H   0  0  0  0  0  0  0  0  0  0  0  0
   -1.0780  -14.9980  -22.0460 H   0  0  0  0  0  0  0  0  0  0  0  0
   -4.4870  -23.4490  -24.0710 H   0  0  0  0  0  0  0  0  0  0  0  0
   -3.5740  -19.0460  -21.8050 H   0  0  0  0  0  0  0  0  0  0  0  0
    0.5390  -16.6530  -20.1530 H   0  0  0  0  0  0  0  0  0  0  0  0
   -3.8680  -23.3440  -21.5750 H   0  0  0  0  0  0  0  0  0  0  0  0
   -1.4970  -21.1950  -21.1310 H   0  0  0  0  0  0  0  0  0  0  0  0
   -2.3780  -21.4640  -23.4680 H   0  0  0  0  0  0  0  0  0  0  0  0
   -1.1450  -14.0870  -19.6900 H   0  0  0  0  0  0  0  0  0  0  0  0
   -1.3950  -16.8980  -18.4490 H   0  0  0  0  0  0  0  0  0  0  0  0
  1 10  1  0  0  0  0
  2 24  1  0  0  0  0
  2 11  1  0  0  0  0
  3 14  1  0  0  0  0
  4 26  1  0  0  0  0
  4 15  1  0  0  0  0
  5 16  1  0  0  0  0
  5 27  1  0  0  0  0
  8 19  1  0  0  0  0
  9 31  1  0  0  0  0
 10 32  1  0  0  0  0
 10 33  1  0  0  0  0
 11 34  1  0  0  0  0
 11 35  1  0  0  0  0
 12 36  1  0  0  0  0
 12 37  1  0  0  0  0
 13 22  1  0  0  0  0
 13 16  1  0  0  0  0
 14 40  1  6  0  0  0
 14 10  1  0  0  0  0
 14 17  1  0  0  0  0
 15 41  1  6  0  0  0
 15 18  1  0  0  0  0
 15 12  1  0  0  0  0
 16 42  1  0  0  0  0
 16 20  1  1  0  0  0
 17  6  1  0  0  0  0
 17 43  1  1  0  0  0
 18 44  1  1  0  0  0
 18  7  1  0  0  0  0
 19 45  1  6  0  0  0
 19 17  1  0  0  0  0
 19 18  1  0  0  0  0
 20 21  1  1  0  0  0
 20  9  1  0  0  0  0
 21 22  1  6  0  0  0
 21 47  1  0  0  0  0
 21 11  1  0  0  0  0
 22 12  1  1  0  0  0
 23  1  1  0  0  0  0
 25  3  1  0  0  0  0
 28  6  1  0  0  0  0
 29  7  1  0  0  0  0
 30  8  1  0  0  0  0
 38 13  1  0  0  0  0
 39 13  1  0  0  0  0
 46 20  1  0  0  0  0
M  CHG  1  22   1
M  END
$$$$
