1a30_ligand_rnum.pdb
 OpenBabel02151809393D

 49 48  0  0  1  0  0  0  0  0999 V2000
    4.8410   27.5760    5.3100 N   0  3  0  0  0  0  0  0  0  0  0  0
    5.7330   26.3940    5.1650 C   0  0  2  0  0  0  0  0  0  0  0  0
    7.1740   26.7720    5.5040 C   0  0  0  0  0  0  0  0  0  0  0  0
    7.6240   27.8870    5.2180 O   0  0  0  0  0  0  0  0  0  0  0  0
    5.6380   25.8180    3.7500 C   0  0  0  0  0  0  0  0  0  0  0  0
    5.8270   26.8460    2.6520 C   0  0  0  0  0  0  0  0  0  0  0  0
    5.6250   26.2750    1.2620 C   0  0  0  0  0  0  0  0  0  0  0  0
    4.6630   25.4970    1.0650 O   0  0  0  0  0  0  0  0  0  0  0  0
    6.4250   26.6200    0.3630 O   0  5  0  0  0  0  0  0  0  0  0  0
    7.8730   25.8560    6.1630 N   0  0  0  0  0  0  0  0  0  0  0  0
    9.2580   26.0720    6.5600 C   0  0  2  0  0  0  0  0  0  0  0  0
   10.1010   24.9180    6.0470 C   0  0  0  0  0  0  0  0  0  0  0  0
   10.1820   23.8640    6.6820 O   0  0  0  0  0  0  0  0  0  0  0  0
    9.3460   26.1960    8.0790 C   0  0  0  0  0  0  0  0  0  0  0  0
    8.6490   27.4410    8.5880 C   0  0  0  0  0  0  0  0  0  0  0  0
    9.2700   28.5180    8.5210 O   0  0  0  0  0  0  0  0  0  0  0  0
    7.4740   27.3570    9.0120 O   0  5  0  0  0  0  0  0  0  0  0  0
   10.6860   25.1150    4.8690 N   0  0  0  0  0  0  0  0  0  0  0  0
   11.4980   24.0930    4.2260 C   0  0  2  0  0  0  0  0  0  0  0  0
   12.9840   24.3990    4.2680 C   0  0  0  0  0  0  0  0  0  0  0  0
   13.7840   23.4420    4.1920 O   0  0  0  0  0  0  0  0  0  0  0  0
   11.0380   23.9220    2.7850 C   0  0  0  0  0  0  0  0  0  0  0  0
    9.5830   23.4660    2.7700 C   0  0  0  0  0  0  0  0  0  0  0  0
    8.8190   24.1970    1.7080 C   0  0  0  0  0  0  0  0  0  0  0  0
    9.5210   21.9550    2.6020 C   0  0  0  0  0  0  0  0  0  0  0  0
   13.3340   25.5920    4.3780 O   0  5  0  0  0  0  0  0  0  0  0  0
    3.9000   27.3370    5.0360 H   0  0  0  0  0  0  0  0  0  0  0  0
    4.8550   27.8830    6.2720 H   0  0  0  0  0  0  0  0  0  0  0  0
    5.1920   28.3300    4.7290 H   0  0  0  0  0  0  0  0  0  0  0  0
    5.3260   25.7090    5.8940 H   0  0  0  0  0  0  0  0  0  0  0  0
    4.6580   25.3500    3.6470 H   0  0  0  0  0  0  0  0  0  0  0  0
    6.3600   25.0080    3.6300 H   0  0  0  0  0  0  0  0  0  0  0  0
    6.8160   27.3030    2.7060 H   0  0  0  0  0  0  0  0  0  0  0  0
    5.1020   27.6390    2.7720 H   0  0  0  0  0  0  0  0  0  0  0  0
    7.4430   24.9670    6.3890 H   0  0  0  0  0  0  0  0  0  0  0  0
    9.6480   26.9730    6.1350 H   0  0  0  0  0  0  0  0  0  0  0  0
   10.3900   26.2400    8.3930 H   0  0  0  0  0  0  0  0  0  0  0  0
    8.9120   25.3230    8.5710 H   0  0  0  0  0  0  0  0  0  0  0  0
   10.6020   26.0090    4.4040 H   0  0  0  0  0  0  0  0  0  0  0  0
   11.3800   23.1240    4.7150 H   0  0  0  0  0  0  0  0  0  0  0  0
   11.6770   23.2190    2.2480 H   0  0  0  0  0  0  0  0  0  0  0  0
   11.1520   24.8790    2.2710 H   0  0  0  0  0  0  0  0  0  0  0  0
    9.0570   23.6770    3.7000 H   0  0  0  0  0  0  0  0  0  0  0  0
    7.8630   23.7240    1.4780 H   0  0  0  0  0  0  0  0  0  0  0  0
    8.6130   25.2220    2.0200 H   0  0  0  0  0  0  0  0  0  0  0  0
    9.4260   24.2640    0.8100 H   0  0  0  0  0  0  0  0  0  0  0  0
    8.4900   21.6040    2.5870 H   0  0  0  0  0  0  0  0  0  0  0  0
    9.9990   21.6240    1.6790 H   0  0  0  0  0  0  0  0  0  0  0  0
   10.0180   21.4740    3.4410 H   0  0  0  0  0  0  0  0  0  0  0  0
  1 28  1  0  0  0  0
  2  1  1  0  0  0  0
  2  3  1  0  0  0  0
  2 30  1  1  0  0  0
  3 10  1  0  0  0  0
  4  3  2  0  0  0  0
  5  2  1  0  0  0  0
  6 33  1  0  0  0  0
  6 34  1  0  0  0  0
  6  5  1  0  0  0  0
  7  6  1  0  0  0  0
  8  7  1  0  0  0  0
  9  7  2  0  0  0  0
 10 35  1  0  0  0  0
 10 11  1  0  0  0  0
 11 36  1  6  0  0  0
 11 14  1  0  0  0  0
 12 11  1  0  0  0  0
 12 13  2  0  0  0  0
 14 37  1  0  0  0  0
 14 38  1  0  0  0  0
 14 15  1  0  0  0  0
 15 17  1  0  0  0  0
 16 15  2  0  0  0  0
 18 12  1  0  0  0  0
 19 20  1  0  0  0  0
 19 40  1  1  0  0  0
 19 18  1  0  0  0  0
 20 26  1  0  0  0  0
 21 20  2  0  0  0  0
 22 19  1  0  0  0  0
 23 22  1  0  0  0  0
 23 43  1  0  0  0  0
 24 45  1  0  0  0  0
 24 23  1  0  0  0  0
 25 23  1  0  0  0  0
 25 49  1  0  0  0  0
 27  1  1  0  0  0  0
 29  1  1  0  0  0  0
 31  5  1  0  0  0  0
 32  5  1  0  0  0  0
 39 18  1  0  0  0  0
 41 22  1  0  0  0  0
 42 22  1  0  0  0  0
 44 24  1  0  0  0  0
 46 24  1  0  0  0  0
 47 25  1  0  0  0  0
 48 25  1  0  0  0  0
M  CHG  4   1   1   9  -1  17  -1  26  -1
M  END
$$$$
