3f3c_ligand_rnum.pdb
 OpenBabel02151809393D

 23 23  0  0  1  0  0  0  0  0999 V2000
   25.9520   32.2700   19.1620 N   0  3  0  0  0  0  0  0  0  0  0  0
   27.2540   31.6260   19.1260 C   0  0  2  0  0  0  0  0  0  0  0  0
   27.2000   30.3180   18.3880 C   0  0  0  0  0  0  0  0  0  0  0  0
   28.2740   29.6910   18.1950 O   0  0  0  0  0  0  0  0  0  0  0  0
   26.0890   29.9050   18.0060 O   0  5  0  0  0  0  0  0  0  0  0  0
   27.7240   31.3570   20.5520 C   0  0  0  0  0  0  0  0  0  0  0  0
   28.0240   32.6860   21.1950 C   0  0  0  0  0  0  0  0  0  0  0  0
   28.6550   33.6630   20.4380 C   0  0  0  0  0  0  0  0  0  0  0  0
   27.6660   32.9360   22.5200 C   0  0  0  0  0  0  0  0  0  0  0  0
   28.9370   34.8970   20.9980 C   0  0  0  0  0  0  0  0  0  0  0  0
   27.9470   34.1790   23.0870 C   0  0  0  0  0  0  0  0  0  0  0  0
   28.5800   35.1500   22.3190 C   0  0  0  0  0  0  0  0  0  0  0  0
   28.8640   36.3490   22.8450 F   0  0  0  0  0  0  0  0  0  0  0  0
   26.0270   33.1890   19.5770 H   0  0  0  0  0  0  0  0  0  0  0  0
   25.6060   32.3510   18.2140 H   0  0  0  0  0  0  0  0  0  0  0  0
   25.3120   31.7000   19.6980 H   0  0  0  0  0  0  0  0  0  0  0  0
   27.9090   32.2090   18.4880 H   0  0  0  0  0  0  0  0  0  0  0  0
   28.6390   30.7650   20.5820 H   0  0  0  0  0  0  0  0  0  0  0  0
   26.9690   30.8150   21.1250 H   0  0  0  0  0  0  0  0  0  0  0  0
   28.9800   33.5340   19.4280 H   0  0  0  0  0  0  0  0  0  0  0  0
   27.1790   32.1720   23.1070 H   0  0  0  0  0  0  0  0  0  0  0  0
   29.4370   35.6500   20.4090 H   0  0  0  0  0  0  0  0  0  0  0  0
   27.7070   34.3980   24.1090 H   0  0  0  0  0  0  0  0  0  0  0  0
  1 14  1  0  0  0  0
  1 16  1  0  0  0  0
  2 17  1  6  0  0  0
  2  1  1  0  0  0  0
  2  6  1  0  0  0  0
  3  2  1  0  0  0  0
  4  3  1  0  0  0  0
  5  3  2  0  0  0  0
  6 18  1  0  0  0  0
  6 19  1  0  0  0  0
  6  7  1  0  0  0  0
  7  9  2  0  0  0  0
  8 10  2  0  0  0  0
  8  7  1  0  0  0  0
  9 11  1  0  0  0  0
  9 21  1  0  0  0  0
 10 12  1  0  0  0  0
 11 23  1  0  0  0  0
 12 13  1  0  0  0  0
 12 11  2  0  0  0  0
 15  1  1  0  0  0  0
 20  8  1  0  0  0  0
 22 10  1  0  0  0  0
M  CHG  2   1   1   5  -1
M  END
$$$$
