2pcp_ligand_rnum.pdb
 OpenBabel02151809393D

 44 46  0  0  0  0  0  0  0  0999 V2000
   -7.3300  -31.7920  -15.3690 C   0  0  0  0  0  0  0  0  0  0  0  0
   -9.1620  -27.2400  -14.5290 C   0  0  0  0  0  0  0  0  0  0  0  0
   -9.4430  -27.0060  -15.9010 C   0  0  0  0  0  0  0  0  0  0  0  0
  -10.7910  -26.7340  -16.3260 C   0  0  0  0  0  0  0  0  0  0  0  0
  -11.8960  -26.6870  -15.3840 C   0  0  0  0  0  0  0  0  0  0  0  0
  -11.6170  -26.9260  -14.0510 C   0  0  0  0  0  0  0  0  0  0  0  0
  -10.2900  -27.1930  -13.6110 C   0  0  0  0  0  0  0  0  0  0  0  0
   -7.6760  -27.5180  -13.9960 C   0  0  0  0  0  0  0  0  0  0  0  0
   -6.5630  -26.5590  -14.6380 C   0  0  0  0  0  0  0  0  0  0  0  0
   -6.9940  -25.1210  -14.3940 C   0  0  0  0  0  0  0  0  0  0  0  0
   -6.9050  -24.7740  -12.8920 C   0  0  0  0  0  0  0  0  0  0  0  0
   -7.7300  -25.7770  -12.0620 C   0  0  0  0  0  0  0  0  0  0  0  0
   -7.4210  -27.2270  -12.4630 C   0  0  0  0  0  0  0  0  0  0  0  0
   -7.2300  -29.0100  -14.1940 N   0  3  0  0  0  0  0  0  0  0  0  0
   -8.2710  -30.0700  -13.7270 C   0  0  0  0  0  0  0  0  0  0  0  0
   -7.7730  -31.5110  -13.9330 C   0  0  0  0  0  0  0  0  0  0  0  0
   -6.2590  -30.7550  -15.7650 C   0  0  0  0  0  0  0  0  0  0  0  0
   -6.7380  -29.3290  -15.6150 C   0  0  0  0  0  0  0  0  0  0  0  0
   -8.1840  -31.7200  -16.0390 H   0  0  0  0  0  0  0  0  0  0  0  0
   -6.9340  -32.8040  -15.4600 H   0  0  0  0  0  0  0  0  0  0  0  0
   -8.6470  -26.8630  -16.5980 H   0  0  0  0  0  0  0  0  0  0  0  0
  -10.9710  -26.5180  -17.3650 H   0  0  0  0  0  0  0  0  0  0  0  0
  -12.9010  -26.4690  -15.7150 H   0  0  0  0  0  0  0  0  0  0  0  0
  -12.4200  -26.8990  -13.3290 H   0  0  0  0  0  0  0  0  0  0  0  0
  -10.0970  -27.3680  -12.5810 H   0  0  0  0  0  0  0  0  0  0  0  0
   -6.5350  -26.6430  -15.7210 H   0  0  0  0  0  0  0  0  0  0  0  0
   -5.5540  -26.7520  -14.2690 H   0  0  0  0  0  0  0  0  0  0  0  0
   -7.9880  -24.9080  -14.7830 H   0  0  0  0  0  0  0  0  0  0  0  0
   -6.3110  -24.4650  -14.9320 H   0  0  0  0  0  0  0  0  0  0  0  0
   -7.2700  -23.7640  -12.7290 H   0  0  0  0  0  0  0  0  0  0  0  0
   -5.8570  -24.8230  -12.6130 H   0  0  0  0  0  0  0  0  0  0  0  0
   -8.7880  -25.5560  -12.1670 H   0  0  0  0  0  0  0  0  0  0  0  0
   -7.5120  -25.6480  -11.0050 H   0  0  0  0  0  0  0  0  0  0  0  0
   -6.3740  -27.3910  -12.2910 H   0  0  0  0  0  0  0  0  0  0  0  0
   -7.9680  -27.9120  -11.8200 H   0  0  0  0  0  0  0  0  0  0  0  0
   -6.4210  -29.1350  -13.6000 H   0  0  0  0  0  0  0  0  0  0  0  0
   -9.2060  -29.9360  -14.2730 H   0  0  0  0  0  0  0  0  0  0  0  0
   -8.5000  -29.9170  -12.6760 H   0  0  0  0  0  0  0  0  0  0  0  0
   -6.9520  -31.7710  -13.2740 H   0  0  0  0  0  0  0  0  0  0  0  0
   -8.5750  -32.2000  -13.6680 H   0  0  0  0  0  0  0  0  0  0  0  0
   -5.9670  -30.9380  -16.7990 H   0  0  0  0  0  0  0  0  0  0  0  0
   -5.3620  -30.8960  -15.1630 H   0  0  0  0  0  0  0  0  0  0  0  0
   -6.0670  -28.5970  -16.0050 H   0  0  0  0  0  0  0  0  0  0  0  0
   -7.7450  -29.3740  -15.9930 H   0  0  0  0  0  0  0  0  0  0  0  0
  1 16  1  0  0  0  0
  2  8  1  0  0  0  0
  2  7  2  0  0  0  0
  3  2  1  0  0  0  0
  4  3  2  0  0  0  0
  4  5  1  0  0  0  0
  5  6  2  0  0  0  0
  6  7  1  0  0  0  0
  6 24  1  0  0  0  0
  7 25  1  0  0  0  0
  8 13  1  0  0  0  0
  9 10  1  0  0  0  0
  9 27  1  0  0  0  0
  9  8  1  0  0  0  0
 10 11  1  0  0  0  0
 11 30  1  0  0  0  0
 11 31  1  0  0  0  0
 11 12  1  0  0  0  0
 12 33  1  0  0  0  0
 13 34  1  0  0  0  0
 13 12  1  0  0  0  0
 13 35  1  0  0  0  0
 14  8  1  0  0  0  0
 14 15  1  0  0  0  0
 14 36  1  0  0  0  0
 15 38  1  0  0  0  0
 16 15  1  0  0  0  0
 16 40  1  0  0  0  0
 16 39  1  0  0  0  0
 17 18  1  0  0  0  0
 17  1  1  0  0  0  0
 17 42  1  0  0  0  0
 18 14  1  0  0  0  0
 19  1  1  0  0  0  0
 20  1  1  0  0  0  0
 21  3  1  0  0  0  0
 22  4  1  0  0  0  0
 23  5  1  0  0  0  0
 26  9  1  0  0  0  0
 28 10  1  0  0  0  0
 29 10  1  0  0  0  0
 32 12  1  0  0  0  0
 37 15  1  0  0  0  0
 41 17  1  0  0  0  0
 43 18  1  0  0  0  0
 44 18  1  0  0  0  0
M  CHG  1  14   1
M  END
$$$$
