1igj_ligand_rnum.pdb
 OpenBabel02151809393D

 81 86  0  0  1  0  0  0  0  0999 V2000
  -12.8600   30.5530   29.6030 C   0  0  0  0  0  0  0  0  0  0  0  0
  -14.2370   30.8280   29.0050 C   0  0  0  0  0  0  0  0  0  0  0  0
  -15.3450   30.5190   30.0030 C   0  0  2  0  0  0  0  0  0  0  0  0
  -15.1660   31.2820   31.2080 O   0  0  0  0  0  0  0  0  0  0  0  0
  -15.2960   29.0440   30.3670 C   0  0  0  0  0  0  0  0  0  0  0  0
  -13.9590   28.7200   31.0240 C   0  0  1  0  0  0  0  0  0  0  0  0
  -13.9130   27.2940   31.5560 C   0  0  0  0  0  0  0  0  0  0  0  0
  -13.8200   26.2810   30.4260 C   0  0  0  0  0  0  0  0  0  0  0  0
  -12.6190   26.5950   29.5330 C   0  0  2  0  0  0  0  0  0  0  0  0
  -12.6130   28.0400   29.0220 C   0  0  1  0  0  0  0  0  0  0  0  0
  -12.7320   29.1170   30.1400 C   0  0  1  0  0  0  0  0  0  0  0  0
  -11.3790   28.2690   28.1660 C   0  0  0  0  0  0  0  0  0  0  0  0
  -11.3900   27.3040   26.9990 C   0  0  1  0  0  0  0  0  0  0  0  0
  -10.3850   27.6410   26.0380 O   0  0  0  0  0  0  0  0  0  0  0  0
  -11.2700   25.8240   27.4610 C   0  0  1  0  0  0  0  0  0  0  0  0
  -12.4620   25.5100   28.4310 C   0  0  1  0  0  0  0  0  0  0  0  0
  -12.2830   24.2320   29.0970 O   0  0  0  0  0  0  0  0  0  0  0  0
  -13.6570   25.3010   27.4800 C   0  0  0  0  0  0  0  0  0  0  0  0
  -13.0990   24.8230   26.1400 C   0  0  0  0  0  0  0  0  0  0  0  0
  -11.5760   25.0010   26.1700 C   0  0  2  0  0  0  0  0  0  0  0  0
   -9.8900   25.5860   28.1160 C   0  0  0  0  0  0  0  0  0  0  0  0
  -11.4340   29.2170   30.9610 C   0  0  0  0  0  0  0  0  0  0  0  0
  -10.7520   23.7710   25.9440 C   0  0  0  0  0  0  0  0  0  0  0  0
  -11.1790   22.4050   26.3180 C   0  0  0  0  0  0  0  0  0  0  0  0
  -10.0260   21.5670   26.0760 O   0  0  0  0  0  0  0  0  0  0  0  0
   -9.5050   23.6880   25.4600 C   0  0  0  0  0  0  0  0  0  0  0  0
   -9.0660   22.3070   25.5210 C   0  0  0  0  0  0  0  0  0  0  0  0
   -7.9940   21.8000   25.2150 O   0  0  0  0  0  0  0  0  0  0  0  0
  -16.2710   32.0600   31.6780 C   0  0  1  0  0  0  0  0  0  0  0  0
  -16.4780   33.2600   30.7520 C   0  0  0  0  0  0  0  0  0  0  0  0
  -17.6850   34.0700   31.2070 C   0  0  2  0  0  0  0  0  0  0  0  0
  -17.4590   34.7030   32.4860 O   0  0  0  0  0  0  0  0  0  0  0  0
  -18.9040   33.1420   31.2570 C   0  0  2  0  0  0  0  0  0  0  0  0
  -19.9870   33.8440   31.8870 O   0  0  0  0  0  0  0  0  0  0  0  0
  -18.6400   31.8370   32.0270 C   0  0  2  0  0  0  0  0  0  0  0  0
  -17.4280   31.2400   31.6130 O   0  0  0  0  0  0  0  0  0  0  0  0
  -19.6710   30.7790   31.6820 C   0  0  0  0  0  0  0  0  0  0  0  0
  -12.7280   31.2600   30.4250 H   0  0  0  0  0  0  0  0  0  0  0  0
  -12.0840   30.8290   28.8930 H   0  0  0  0  0  0  0  0  0  0  0  0
  -14.3820   30.2430   28.0980 H   0  0  0  0  0  0  0  0  0  0  0  0
  -14.2990   31.8740   28.7040 H   0  0  0  0  0  0  0  0  0  0  0  0
  -16.3010   30.7240   29.5200 H   0  0  0  0  0  0  0  0  0  0  0  0
  -15.4680   28.4380   29.4770 H   0  0  0  0  0  0  0  0  0  0  0  0
  -16.1140   28.8150   31.0510 H   0  0  0  0  0  0  0  0  0  0  0  0
  -13.9060   29.3380   31.9210 H   0  0  0  0  0  0  0  0  0  0  0  0
  -14.7930   27.0880   32.1670 H   0  0  0  0  0  0  0  0  0  0  0  0
  -13.0610   27.1840   32.2190 H   0  0  0  0  0  0  0  0  0  0  0  0
  -14.7410   26.2850   29.8440 H   0  0  0  0  0  0  0  0  0  0  0  0
  -13.7440   25.2850   30.8620 H   0  0  0  0  0  0  0  0  0  0  0  0
  -11.7440   26.4850   30.1720 H   0  0  0  0  0  0  0  0  0  0  0  0
  -13.4790   28.1520   28.3710 H   0  0  0  0  0  0  0  0  0  0  0  0
  -10.4520   28.1790   28.7300 H   0  0  0  0  0  0  0  0  0  0  0  0
  -11.3770   29.2660   27.7340 H   0  0  0  0  0  0  0  0  0  0  0  0
  -12.3310   27.4560   26.4690 H   0  0  0  0  0  0  0  0  0  0  0  0
  -10.5010   27.0920   25.2770 H   0  0  0  0  0  0  0  0  0  0  0  0
  -11.5590   24.3120   29.7000 H   0  0  0  0  0  0  0  0  0  0  0  0
  -14.1820   26.2420   27.3180 H   0  0  0  0  0  0  0  0  0  0  0  0
  -14.4000   24.6100   27.8820 H   0  0  0  0  0  0  0  0  0  0  0  0
  -13.5380   25.4070   25.3320 H   0  0  0  0  0  0  0  0  0  0  0  0
  -13.3980   23.7920   25.9580 H   0  0  0  0  0  0  0  0  0  0  0  0
  -11.3220   25.5830   25.2970 H   0  0  0  0  0  0  0  0  0  0  0  0
   -9.7190   24.5270   28.2840 H   0  0  0  0  0  0  0  0  0  0  0  0
   -9.0730   25.9280   27.4810 H   0  0  0  0  0  0  0  0  0  0  0  0
   -9.7810   26.0820   29.0790 H   0  0  0  0  0  0  0  0  0  0  0  0
  -11.0880   28.2380   31.2690 H   0  0  0  0  0  0  0  0  0  0  0  0
  -10.6150   29.6820   30.4110 H   0  0  0  0  0  0  0  0  0  0  0  0
  -11.5770   29.8040   31.8690 H   0  0  0  0  0  0  0  0  0  0  0  0
  -11.9960   22.1290   25.6580 H   0  0  0  0  0  0  0  0  0  0  0  0
  -11.4980   22.3480   27.3580 H   0  0  0  0  0  0  0  0  0  0  0  0
   -8.8850   24.4860   25.1210 H   0  0  0  0  0  0  0  0  0  0  0  0
  -16.0740   32.3610   32.7080 H   0  0  0  0  0  0  0  0  0  0  0  0
  -16.6290   32.9200   29.7280 H   0  0  0  0  0  0  0  0  0  0  0  0
  -15.5750   33.8710   30.7600 H   0  0  0  0  0  0  0  0  0  0  0  0
  -17.8730   34.8700   30.4890 H   0  0  0  0  0  0  0  0  0  0  0  0
  -18.2830   35.0720   32.7710 H   0  0  0  0  0  0  0  0  0  0  0  0
  -19.1930   32.9040   30.2320 H   0  0  0  0  0  0  0  0  0  0  0  0
  -20.7520   33.2880   31.8750 H   0  0  0  0  0  0  0  0  0  0  0  0
  -18.6010   32.0160   33.1030 H   0  0  0  0  0  0  0  0  0  0  0  0
  -19.4660   29.8490   32.2130 H   0  0  0  0  0  0  0  0  0  0  0  0
  -20.6760   31.0980   31.9590 H   0  0  0  0  0  0  0  0  0  0  0  0
  -19.6740   30.5550   30.6140 H   0  0  0  0  0  0  0  0  0  0  0  0
  1 11  1  0  0  0  0
  1 38  1  0  0  0  0
  2  1  1  0  0  0  0
  2  3  1  0  0  0  0
  3 42  1  6  0  0  0
  3  5  1  0  0  0  0
  3  4  1  0  0  0  0
  4 29  1  0  0  0  0
  5  6  1  0  0  0  0
  5 44  1  0  0  0  0
  6 11  1  6  0  0  0
  6  7  1  0  0  0  0
  6 45  1  0  0  0  0
  7 46  1  0  0  0  0
  7 47  1  0  0  0  0
  8 49  1  0  0  0  0
  8  7  1  0  0  0  0
  9 16  1  6  0  0  0
  9 50  1  0  0  0  0
  9  8  1  0  0  0  0
 10  9  1  1  0  0  0
 11 10  1  6  0  0  0
 11 22  1  0  0  0  0
 12 52  1  0  0  0  0
 12 10  1  0  0  0  0
 13 15  1  1  0  0  0
 13 12  1  0  0  0  0
 14 13  1  0  0  0  0
 15 20  1  6  0  0  0
 15 21  1  0  0  0  0
 16 15  1  6  0  0  0
 16 17  1  0  0  0  0
 17 56  1  0  0  0  0
 18 58  1  0  0  0  0
 18 16  1  0  0  0  0
 19 20  1  0  0  0  0
 19 18  1  0  0  0  0
 20 61  1  6  0  0  0
 21 62  1  0  0  0  0
 21 64  1  0  0  0  0
 22 65  1  0  0  0  0
 22 67  1  0  0  0  0
 23 20  1  0  0  0  0
 23 24  1  0  0  0  0
 24 69  1  0  0  0  0
 25 24  1  0  0  0  0
 26 27  1  0  0  0  0
 26 23  2  0  0  0  0
 27 25  1  0  0  0  0
 28 27  2  0  0  0  0
 29 71  1  1  0  0  0
 30 73  1  0  0  0  0
 30 31  1  0  0  0  0
 30 29  1  0  0  0  0
 31 33  1  1  0  0  0
 31 32  1  0  0  0  0
 32 75  1  0  0  0  0
 33 34  1  0  0  0  0
 33 35  1  1  0  0  0
 35 78  1  1  0  0  0
 36 29  1  0  0  0  0
 36 35  1  0  0  0  0
 37 80  1  0  0  0  0
 37 35  1  0  0  0  0
 37 79  1  0  0  0  0
 39  1  1  0  0  0  0
 40  2  1  0  0  0  0
 41  2  1  0  0  0  0
 43  5  1  0  0  0  0
 48  8  1  0  0  0  0
 51 10  1  0  0  0  0
 53 12  1  0  0  0  0
 54 13  1  0  0  0  0
 55 14  1  0  0  0  0
 57 18  1  0  0  0  0
 59 19  1  0  0  0  0
 60 19  1  0  0  0  0
 63 21  1  0  0  0  0
 66 22  1  0  0  0  0
 68 24  1  0  0  0  0
 70 26  1  0  0  0  0
 72 30  1  0  0  0  0
 74 31  1  0  0  0  0
 76 33  1  0  0  0  0
 77 34  1  0  0  0  0
 81 37  1  0  0  0  0
M  END
$$$$
