4djr_ligand_rnum.pdb
 OpenBabel02151809393D

 76 79  0  0  1  0  0  0  0  0999 V2000
   21.8200   23.3930   11.4910 O   0  0  0  0  0  0  0  0  0  0  0  0
   21.7650   24.4410   10.8910 C   0  0  0  0  0  0  0  0  0  0  0  0
   22.8010   25.1420   10.4650 N   0  0  0  0  0  0  0  0  0  0  0  0
   22.4460   26.3660    9.7980 C   0  0  1  0  0  0  0  0  0  0  0  0
   20.9310   26.2580    9.6210 C   0  0  0  0  0  0  0  0  0  0  0  0
   20.4700   25.1100   10.5050 C   0  0  0  0  0  0  0  0  0  0  0  0
   22.8550   27.5520   10.6540 C   0  0  0  0  0  0  0  0  0  0  0  0
   22.2100   27.3810   11.9170 O   0  0  0  0  0  0  0  0  0  0  0  0
   21.3290   28.4180   12.4250 C   0  0  0  0  0  0  0  0  0  0  0  0
   21.3440   29.5100   11.8810 O   0  0  0  0  0  0  0  0  0  0  0  0
   20.5450   28.0630   13.4380 N   0  0  0  0  0  0  0  0  0  0  0  0
   19.5100   28.8850   14.0440 C   0  0  1  0  0  0  0  0  0  0  0  0
   18.1880   28.1130   13.9920 C   0  0  0  0  0  0  0  0  0  0  0  0
   17.7990   27.7770   12.5600 C   0  0  0  0  0  0  0  0  0  0  0  0
   17.7010   26.4470   12.1700 C   0  0  0  0  0  0  0  0  0  0  0  0
   17.3410   26.1240   10.8630 C   0  0  0  0  0  0  0  0  0  0  0  0
   17.0710   27.1300    9.9430 C   0  0  0  0  0  0  0  0  0  0  0  0
   17.1660   28.4610   10.3320 C   0  0  0  0  0  0  0  0  0  0  0  0
   17.5220   28.7780   11.6400 C   0  0  0  0  0  0  0  0  0  0  0  0
   19.9440   29.2990   15.4520 C   0  0  2  0  0  0  0  0  0  0  0  0
   19.8780   28.1760   16.3360 O   0  0  0  0  0  0  0  0  0  0  0  0
   19.0960   30.4320   16.0480 C   0  0  0  0  0  0  0  0  0  0  0  0
   19.3380   31.6740   15.2670 N   0  0  0  0  0  0  0  0  0  0  0  0
   20.1170   32.6720   16.0360 C   0  0  0  0  0  0  0  0  0  0  0  0
   21.6270   32.3790   15.9880 C   0  0  1  0  0  0  0  0  0  0  0  0
   22.2330   32.4320   14.5850 C   0  0  0  0  0  0  0  0  0  0  0  0
   22.3540   33.3630   16.9120 C   0  0  0  0  0  0  0  0  0  0  0  0
   22.2010   34.8180   16.4970 C   0  0  0  0  0  0  0  0  0  0  0  0
   18.0170   32.2920   14.5410 S   0  0  0  0  0  0  0  0  0  0  0  0
   17.2470   31.1870   14.0580 O   0  0  0  0  0  0  0  0  0  0  0  0
   18.5130   33.1710   13.5080 O   0  0  0  0  0  0  0  0  0  0  0  0
   17.1270   33.1930   15.5900 C   0  0  0  0  0  0  0  0  0  0  0  0
   16.1470   32.5440   16.3440 C   0  0  0  0  0  0  0  0  0  0  0  0
   15.3930   33.2270   17.2970 C   0  0  0  0  0  0  0  0  0  0  0  0
   17.3050   34.5670   15.8150 C   0  0  0  0  0  0  0  0  0  0  0  0
   16.5410   35.2630   16.7670 C   0  0  0  0  0  0  0  0  0  0  0  0
   16.6740   36.9330   17.1210 S   0  0  0  0  0  0  0  0  0  0  0  0
   15.4140   36.6730   18.2880 C   0  0  0  0  0  0  0  0  0  0  0  0
   14.9560   35.4140   18.3750 N   0  0  0  0  0  0  0  0  0  0  0  0
   15.5810   34.5770   17.5140 C   0  0  0  0  0  0  0  0  0  0  0  0
   23.7610   24.8580   10.5930 H   0  0  0  0  0  0  0  0  0  0  0  0
   22.9600   26.3990    8.8370 H   0  0  0  0  0  0  0  0  0  0  0  0
   20.6940   26.0020    8.5880 H   0  0  0  0  0  0  0  0  0  0  0  0
   20.4020   27.1830    9.8520 H   0  0  0  0  0  0  0  0  0  0  0  0
   20.0110   25.4720   11.4210 H   0  0  0  0  0  0  0  0  0  0  0  0
   19.7890   24.4260    9.9990 H   0  0  0  0  0  0  0  0  0  0  0  0
   22.5880   28.4840   10.1550 H   0  0  0  0  0  0  0  0  0  0  0  0
   23.9350   27.5650   10.8030 H   0  0  0  0  0  0  0  0  0  0  0  0
   20.6440   27.1120   13.7670 H   0  0  0  0  0  0  0  0  0  0  0  0
   19.4000   29.7900   13.4480 H   0  0  0  0  0  0  0  0  0  0  0  0
   17.3780   28.6820   14.4420 H   0  0  0  0  0  0  0  0  0  0  0  0
   18.2560   27.1900   14.5690 H   0  0  0  0  0  0  0  0  0  0  0  0
   17.9130   25.6550   12.8730 H   0  0  0  0  0  0  0  0  0  0  0  0
   17.2790   25.0890   10.5620 H   0  0  0  0  0  0  0  0  0  0  0  0
   16.8390   26.8650    8.9240 H   0  0  0  0  0  0  0  0  0  0  0  0
   16.9610   29.2450    9.6200 H   0  0  0  0  0  0  0  0  0  0  0  0
   17.5890   29.8160   11.9280 H   0  0  0  0  0  0  0  0  0  0  0  0
   20.9860   29.6110   15.4100 H   0  0  0  0  0  0  0  0  0  0  0  0
   18.9730   28.0560   16.6280 H   0  0  0  0  0  0  0  0  0  0  0  0
   19.3840   30.5760   17.0900 H   0  0  0  0  0  0  0  0  0  0  0  0
   18.0410   30.1690   16.0890 H   0  0  0  0  0  0  0  0  0  0  0  0
   19.7420   32.7460   17.0580 H   0  0  0  0  0  0  0  0  0  0  0  0
   19.9570   33.6510   15.5880 H   0  0  0  0  0  0  0  0  0  0  0  0
   21.8090   31.3890   16.4030 H   0  0  0  0  0  0  0  0  0  0  0  0
   23.3180   32.3270   14.6130 H   0  0  0  0  0  0  0  0  0  0  0  0
   21.8480   31.6190   13.9680 H   0  0  0  0  0  0  0  0  0  0  0  0
   21.9960   33.3600   14.0660 H   0  0  0  0  0  0  0  0  0  0  0  0
   23.4130   33.1080   16.9450 H   0  0  0  0  0  0  0  0  0  0  0  0
   21.9920   33.2420   17.9340 H   0  0  0  0  0  0  0  0  0  0  0  0
   22.7820   35.4550   17.1630 H   0  0  0  0  0  0  0  0  0  0  0  0
   22.5680   35.0060   15.4890 H   0  0  0  0  0  0  0  0  0  0  0  0
   21.1730   35.1710   16.5610 H   0  0  0  0  0  0  0  0  0  0  0  0
   15.9650   31.4890   16.2040 H   0  0  0  0  0  0  0  0  0  0  0  0
   14.6190   32.7130   17.8370 H   0  0  0  0  0  0  0  0  0  0  0  0
   18.0710   35.0710   15.2650 H   0  0  0  0  0  0  0  0  0  0  0  0
   15.0150   37.4450   18.9280 H   0  0  0  0  0  0  0  0  0  0  0  0
  2  1  2  0  0  0  0
  3 41  1  0  0  0  0
  3  2  1  0  0  0  0
  4 42  1  6  0  0  0
  4  3  1  0  0  0  0
  4  7  1  0  0  0  0
  5  4  1  0  0  0  0
  5 44  1  0  0  0  0
  5  6  1  0  0  0  0
  6  2  1  0  0  0  0
  6 45  1  0  0  0  0
  7 48  1  0  0  0  0
  7  8  1  0  0  0  0
  8  9  1  0  0  0  0
  9 11  1  0  0  0  0
 10  9  2  0  0  0  0
 11 49  1  0  0  0  0
 11 12  1  0  0  0  0
 12 50  1  6  0  0  0
 12 20  1  0  0  0  0
 13 12  1  0  0  0  0
 13 51  1  0  0  0  0
 13 52  1  0  0  0  0
 14 13  1  0  0  0  0
 15 14  1  0  0  0  0
 15 53  1  0  0  0  0
 16 15  2  0  0  0  0
 17 18  2  0  0  0  0
 17 16  1  0  0  0  0
 18 19  1  0  0  0  0
 19 57  1  0  0  0  0
 19 14  2  0  0  0  0
 20 58  1  6  0  0  0
 20 22  1  0  0  0  0
 20 21  1  0  0  0  0
 21 59  1  0  0  0  0
 22 61  1  0  0  0  0
 22 60  1  0  0  0  0
 23 24  1  0  0  0  0
 23 22  1  0  0  0  0
 24 62  1  0  0  0  0
 25 24  1  0  0  0  0
 25 64  1  1  0  0  0
 25 27  1  0  0  0  0
 26 65  1  0  0  0  0
 26 25  1  0  0  0  0
 27 68  1  0  0  0  0
 27 69  1  0  0  0  0
 28 72  1  0  0  0  0
 28 27  1  0  0  0  0
 28 70  1  0  0  0  0
 29 23  1  0  0  0  0
 29 32  1  0  0  0  0
 30 29  2  0  0  0  0
 31 29  2  0  0  0  0
 32 35  2  0  0  0  0
 32 33  1  0  0  0  0
 33 34  2  0  0  0  0
 34 40  1  0  0  0  0
 34 74  1  0  0  0  0
 35 36  1  0  0  0  0
 36 37  1  0  0  0  0
 36 40  2  0  0  0  0
 37 38  1  0  0  0  0
 38 39  2  0  0  0  0
 38 76  1  0  0  0  0
 40 39  1  0  0  0  0
 43  5  1  0  0  0  0
 46  6  1  0  0  0  0
 47  7  1  0  0  0  0
 54 16  1  0  0  0  0
 55 17  1  0  0  0  0
 56 18  1  0  0  0  0
 63 24  1  0  0  0  0
 66 26  1  0  0  0  0
 67 26  1  0  0  0  0
 71 28  1  0  0  0  0
 73 33  1  0  0  0  0
 75 35  1  0  0  0  0
M  END
$$$$
