1h23_ligand_rnum.pdb
 OpenBabel02151809393D

 84 87  0  0  1  0  0  0  0  0999 V2000
    4.5220   59.6020   71.6660 C   0  0  0  0  0  0  0  0  0  0  0  0
    3.7000   58.5110   71.8970 N   0  0  0  0  0  0  0  0  0  0  0  0
    5.3310   59.6040   70.7170 O   0  0  0  0  0  0  0  0  0  0  0  0
    2.5050   59.4210   73.7420 C   0  0  0  0  0  0  0  0  0  0  0  0
    3.3450   60.6450   73.5970 C   0  0  0  0  0  0  0  0  0  0  0  0
    0.6330   57.1930   73.6090 C   0  0  0  0  0  0  0  0  0  0  0  0
    0.4280   60.3760   74.7650 N   0  3  0  0  0  0  0  0  0  0  0  0
   -0.4130   60.5350   73.4890 C   0  0  0  0  0  0  0  0  0  0  0  0
    4.3040   60.7580   72.6160 C   0  0  0  0  0  0  0  0  0  0  0  0
    2.0050   57.0360   72.9280 C   0  0  0  0  0  0  0  0  0  0  0  0
    1.4770   59.2970   74.8870 C   0  0  1  0  0  0  0  0  0  0  0  0
    0.7840   57.9110   74.9890 C   0  0  0  0  0  0  0  0  0  0  0  0
   -0.7010   62.0450   73.3950 C   0  0  0  0  0  0  0  0  0  0  0  0
    1.0830   68.6220   60.9810 C   0  0  0  0  0  0  0  0  0  0  0  0
    2.7510   58.3750   72.8710 C   0  0  0  0  0  0  0  0  0  0  0  0
    2.4730   68.5940   61.0220 N   0  0  0  0  0  0  0  0  0  0  0  0
    3.2580   68.5600   62.1370 C   0  0  0  0  0  0  0  0  0  0  0  0
    2.6510   68.5270   63.3920 C   0  0  0  0  0  0  0  0  0  0  0  0
    1.1680   68.5310   63.4560 C   0  0  0  0  0  0  0  0  0  0  0  0
    0.3990   68.5670   62.3320 C   0  0  0  0  0  0  0  0  0  0  0  0
    0.4940   68.7720   59.9020 O   0  0  0  0  0  0  0  0  0  0  0  0
    4.7870   68.5540   61.9260 C   0  0  0  0  0  0  0  0  0  0  0  0
    3.5080   68.5300   64.6550 C   0  0  2  0  0  0  0  0  0  0  0  0
    5.0070   68.2500   64.4180 C   0  0  0  0  0  0  0  0  0  0  0  0
    5.5200   69.0220   63.1970 C   0  0  0  0  0  0  0  0  0  0  0  0
    3.0380   67.5970   65.7540 N   0  3  0  0  0  0  0  0  0  0  0  0
    3.1900   66.1310   65.5760 C   0  0  0  0  0  0  0  0  0  0  0  0
   -0.4650   62.5560   71.9940 C   0  0  0  0  0  0  0  0  0  0  0  0
    1.0260   62.5860   71.6890 C   0  0  0  0  0  0  0  0  0  0  0  0
    1.2970   62.4980   70.2080 C   0  0  0  0  0  0  0  0  0  0  0  0
    2.7810   62.5820   69.9290 C   0  0  0  0  0  0  0  0  0  0  0  0
    3.3450   63.9720   70.1360 C   0  0  0  0  0  0  0  0  0  0  0  0
    4.6020   64.2420   69.3260 C   0  0  0  0  0  0  0  0  0  0  0  0
    4.8080   65.7340   69.1310 C   0  0  0  0  0  0  0  0  0  0  0  0
    3.9550   66.3340   68.0170 C   0  0  0  0  0  0  0  0  0  0  0  0
    4.1820   65.6650   66.6480 C   0  0  0  0  0  0  0  0  0  0  0  0
    3.8120   57.7150   71.2860 H   0  0  0  0  0  0  0  0  0  0  0  0
    3.1970   61.4690   74.2780 H   0  0  0  0  0  0  0  0  0  0  0  0
    0.1700   56.2150   73.7410 H   0  0  0  0  0  0  0  0  0  0  0  0
   -0.0370   57.7660   72.9720 H   0  0  0  0  0  0  0  0  0  0  0  0
   -0.2050   60.2970   75.5480 H   0  0  0  0  0  0  0  0  0  0  0  0
    0.9290   61.2460   74.8710 H   0  0  0  0  0  0  0  0  0  0  0  0
   -1.3320   59.9530   73.5660 H   0  0  0  0  0  0  0  0  0  0  0  0
    0.1260   60.1550   72.6220 H   0  0  0  0  0  0  0  0  0  0  0  0
    4.9030   61.6530   72.5300 H   0  0  0  0  0  0  0  0  0  0  0  0
    1.8890   56.6250   71.9240 H   0  0  0  0  0  0  0  0  0  0  0  0
    2.6130   56.3290   73.4930 H   0  0  0  0  0  0  0  0  0  0  0  0
    2.0030   59.4860   75.8240 H   0  0  0  0  0  0  0  0  0  0  0  0
    1.3920   57.2700   75.6300 H   0  0  0  0  0  0  0  0  0  0  0  0
   -0.1830   57.9910   75.4870 H   0  0  0  0  0  0  0  0  0  0  0  0
   -0.1000   62.6340   74.0900 H   0  0  0  0  0  0  0  0  0  0  0  0
   -1.7390   62.2190   73.6780 H   0  0  0  0  0  0  0  0  0  0  0  0
    2.9680   68.6460   60.1430 H   0  0  0  0  0  0  0  0  0  0  0  0
    0.6750   68.4430   64.4120 H   0  0  0  0  0  0  0  0  0  0  0  0
   -0.6770   68.5420   62.4090 H   0  0  0  0  0  0  0  0  0  0  0  0
    5.0450   69.2020   61.0890 H   0  0  0  0  0  0  0  0  0  0  0  0
    5.0940   67.5380   61.6730 H   0  0  0  0  0  0  0  0  0  0  0  0
    3.4300   69.5320   65.0660 H   0  0  0  0  0  0  0  0  0  0  0  0
    5.2040   67.1950   64.2360 H   0  0  0  0  0  0  0  0  0  0  0  0
    5.5850   68.5180   65.3000 H   0  0  0  0  0  0  0  0  0  0  0  0
    5.4030   70.0940   63.3450 H   0  0  0  0  0  0  0  0  0  0  0  0
    6.5820   68.8160   63.0850 H   0  0  0  0  0  0  0  0  0  0  0  0
    2.0590   67.7870   65.9110 H   0  0  0  0  0  0  0  0  0  0  0  0
    3.5350   67.8460   66.5970 H   0  0  0  0  0  0  0  0  0  0  0  0
    3.4890   65.8450   64.5670 H   0  0  0  0  0  0  0  0  0  0  0  0
    2.2160   65.6740   65.7540 H   0  0  0  0  0  0  0  0  0  0  0  0
   -0.8690   63.5620   71.8850 H   0  0  0  0  0  0  0  0  0  0  0  0
   -1.0050   61.9290   71.2850 H   0  0  0  0  0  0  0  0  0  0  0  0
    1.5400   61.7570   72.1590 H   0  0  0  0  0  0  0  0  0  0  0  0
    1.4570   63.4910   72.1180 H   0  0  0  0  0  0  0  0  0  0  0  0
    0.7510   63.2880   69.6990 H   0  0  0  0  0  0  0  0  0  0  0  0
    0.9190   61.5540   69.8250 H   0  0  0  0  0  0  0  0  0  0  0  0
    2.9070   62.3050   68.8820 H   0  0  0  0  0  0  0  0  0  0  0  0
    3.3430   61.8440   70.4870 H   0  0  0  0  0  0  0  0  0  0  0  0
    3.5330   64.1570   71.1930 H   0  0  0  0  0  0  0  0  0  0  0  0
    2.5790   64.6900   69.8470 H   0  0  0  0  0  0  0  0  0  0  0  0
    4.6070   63.6790   68.4030 H   0  0  0  0  0  0  0  0  0  0  0  0
    5.4460   63.8470   69.8910 H   0  0  0  0  0  0  0  0  0  0  0  0
    5.8540   65.8770   68.8670 H   0  0  0  0  0  0  0  0  0  0  0  0
    4.6490   66.2680   70.0690 H   0  0  0  0  0  0  0  0  0  0  0  0
    4.2010   67.3950   67.9760 H   0  0  0  0  0  0  0  0  0  0  0  0
    2.9010   66.2740   68.2870 H   0  0  0  0  0  0  0  0  0  0  0  0
    5.2030   65.8670   66.3230 H   0  0  0  0  0  0  0  0  0  0  0  0
    4.0830   64.5840   66.6730 H   0  0  0  0  0  0  0  0  0  0  0  0
  1  2  1  0  0  0  0
  1  9  1  0  0  0  0
  2 15  1  0  0  0  0
  3  1  2  0  0  0  0
  4 11  1  0  0  0  0
  5  4  1  0  0  0  0
  5 38  1  0  0  0  0
  6 39  1  0  0  0  0
  6 12  1  0  0  0  0
  7 42  1  0  0  0  0
  7 11  1  0  0  0  0
  7 41  1  0  0  0  0
  8 43  1  0  0  0  0
  8  7  1  0  0  0  0
  9  5  2  0  0  0  0
 10 47  1  0  0  0  0
 10  6  1  0  0  0  0
 11 12  1  0  0  0  0
 11 48  1  1  0  0  0
 12 50  1  0  0  0  0
 12 49  1  0  0  0  0
 13  8  1  0  0  0  0
 13 52  1  0  0  0  0
 13 51  1  0  0  0  0
 14 16  1  0  0  0  0
 14 20  1  0  0  0  0
 15 10  1  0  0  0  0
 15  4  2  0  0  0  0
 16 17  1  0  0  0  0
 17 18  2  0  0  0  0
 18 19  1  0  0  0  0
 18 23  1  0  0  0  0
 19 54  1  0  0  0  0
 20 55  1  0  0  0  0
 20 19  2  0  0  0  0
 21 14  2  0  0  0  0
 22 17  1  0  0  0  0
 22 25  1  0  0  0  0
 23 58  1  1  0  0  0
 23 26  1  0  0  0  0
 24 23  1  0  0  0  0
 24 60  1  0  0  0  0
 25 61  1  0  0  0  0
 25 24  1  0  0  0  0
 26 63  1  0  0  0  0
 26 64  1  0  0  0  0
 27 26  1  0  0  0  0
 27 66  1  0  0  0  0
 27 36  1  0  0  0  0
 28 13  1  0  0  0  0
 29 28  1  0  0  0  0
 29 70  1  0  0  0  0
 29 69  1  0  0  0  0
 30 29  1  0  0  0  0
 31 32  1  0  0  0  0
 31 30  1  0  0  0  0
 31 74  1  0  0  0  0
 32 75  1  0  0  0  0
 33 78  1  0  0  0  0
 33 32  1  0  0  0  0
 34 33  1  0  0  0  0
 34 80  1  0  0  0  0
 35 82  1  0  0  0  0
 35 34  1  0  0  0  0
 36 84  1  0  0  0  0
 36 35  1  0  0  0  0
 37  2  1  0  0  0  0
 40  6  1  0  0  0  0
 44  8  1  0  0  0  0
 45  9  1  0  0  0  0
 46 10  1  0  0  0  0
 53 16  1  0  0  0  0
 56 22  1  0  0  0  0
 57 22  1  0  0  0  0
 59 24  1  0  0  0  0
 62 25  1  0  0  0  0
 65 27  1  0  0  0  0
 67 28  1  0  0  0  0
 68 28  1  0  0  0  0
 71 30  1  0  0  0  0
 72 30  1  0  0  0  0
 73 31  1  0  0  0  0
 76 32  1  0  0  0  0
 77 33  1  0  0  0  0
 79 34  1  0  0  0  0
 81 35  1  0  0  0  0
 83 36  1  0  0  0  0
M  CHG  2   7   1  26   1
M  END
$$$$
