2xnb_ligand_rnum.pdb
 OpenBabel02151809393D

 50 53  0  0  0  0  0  0  0  0999 V2000
   21.0300   24.0090   29.2560 C   0  0  0  0  0  0  0  0  0  0  0  0
   20.8700   22.4770   29.2510 C   0  0  0  0  0  0  0  0  0  0  0  0
   21.7240   21.8210   28.2490 N   0  3  0  0  0  0  0  0  0  0  0  0
   21.5470   22.5040   26.9750 C   0  0  0  0  0  0  0  0  0  0  0  0
   22.3130   23.8260   27.0370 C   0  0  0  0  0  0  0  0  0  0  0  0
   21.9990   24.5490   28.2820 N   0  0  0  0  0  0  0  0  0  0  0  0
   22.4700   25.8690   28.4570 C   0  0  0  0  0  0  0  0  0  0  0  0
   23.3890   26.4280   27.5660 C   0  0  0  0  0  0  0  0  0  0  0  0
   23.8190   27.7550   27.7100 C   0  0  0  0  0  0  0  0  0  0  0  0
   22.0090   26.6430   29.5180 C   0  0  0  0  0  0  0  0  0  0  0  0
   22.4710   27.9570   29.6610 C   0  0  0  0  0  0  0  0  0  0  0  0
   23.3580   28.5430   28.7540 C   0  0  0  0  0  0  0  0  0  0  0  0
   23.7530   29.8120   28.9680 N   0  0  0  0  0  0  0  0  0  0  0  0
   24.8420   30.4290   28.4720 C   0  0  0  0  0  0  0  0  0  0  0  0
   25.7860   29.8320   27.7130 N   0  0  0  0  0  0  0  0  0  0  0  0
   24.9300   31.7550   28.6910 N   0  0  0  0  0  0  0  0  0  0  0  0
   25.9450   32.4780   28.2440 C   0  0  0  0  0  0  0  0  0  0  0  0
   26.9460   31.8720   27.5050 C   0  0  0  0  0  0  0  0  0  0  0  0
   26.8650   30.5010   27.2580 C   0  0  0  0  0  0  0  0  0  0  0  0
   27.8370   29.8970   26.4430 C   0  0  0  0  0  0  0  0  0  0  0  0
   29.2070   30.6630   25.7370 S   0  0  0  0  0  0  0  0  0  0  0  0
   29.6770   29.2860   24.8710 C   0  0  0  0  0  0  0  0  0  0  0  0
   30.6760   29.1880   24.1620 O   0  0  0  0  0  0  0  0  0  0  0  0
   28.8420   28.2790   25.1390 N   0  0  0  0  0  0  0  0  0  0  0  0
   29.0250   26.9260   24.5410 C   0  0  0  0  0  0  0  0  0  0  0  0
   27.8370   28.5720   25.9750 C   0  0  0  0  0  0  0  0  0  0  0  0
   26.8040   27.5160   26.3780 C   0  0  0  0  0  0  0  0  0  0  0  0
   21.3530   24.2610   30.2660 H   0  0  0  0  0  0  0  0  0  0  0  0
   20.0620   24.4880   29.1000 H   0  0  0  0  0  0  0  0  0  0  0  0
   19.8290   22.2180   29.0540 H   0  0  0  0  0  0  0  0  0  0  0  0
   21.1090   22.0670   30.2330 H   0  0  0  0  0  0  0  0  0  0  0  0
   21.4620   20.8500   28.1640 H   0  0  0  0  0  0  0  0  0  0  0  0
   22.6930   21.8930   28.5260 H   0  0  0  0  0  0  0  0  0  0  0  0
   20.4900   22.6620   26.7520 H   0  0  0  0  0  0  0  0  0  0  0  0
   21.9490   21.8860   26.1720 H   0  0  0  0  0  0  0  0  0  0  0  0
   22.0540   24.4420   26.1790 H   0  0  0  0  0  0  0  0  0  0  0  0
   23.3790   23.6270   26.9740 H   0  0  0  0  0  0  0  0  0  0  0  0
   23.7680   25.8750   26.7200 H   0  0  0  0  0  0  0  0  0  0  0  0
   24.4160   28.1450   26.9250 H   0  0  0  0  0  0  0  0  0  0  0  0
   21.2900   26.3010   30.2450 H   0  0  0  0  0  0  0  0  0  0  0  0
   22.0990   28.5410   30.4900 H   0  0  0  0  0  0  0  0  0  0  0  0
   23.1720   30.3730   29.5790 H   0  0  0  0  0  0  0  0  0  0  0  0
   25.8590   33.5420   28.2980 H   0  0  0  0  0  0  0  0  0  0  0  0
   27.7390   32.4850   27.1050 H   0  0  0  0  0  0  0  0  0  0  0  0
   28.9130   26.1110   25.2500 H   0  0  0  0  0  0  0  0  0  0  0  0
   28.2850   26.7770   23.7540 H   0  0  0  0  0  0  0  0  0  0  0  0
   30.0050   26.7990   24.0820 H   0  0  0  0  0  0  0  0  0  0  0  0
   27.1320   26.4930   26.2260 H   0  0  0  0  0  0  0  0  0  0  0  0
   26.5610   27.5460   27.4370 H   0  0  0  0  0  0  0  0  0  0  0  0
   25.9340   27.6360   25.7380 H   0  0  0  0  0  0  0  0  0  0  0  0
  1 28  1  0  0  0  0
  2  1  1  0  0  0  0
  2 31  1  0  0  0  0
  3 33  1  0  0  0  0
  3  2  1  0  0  0  0
  4  5  1  0  0  0  0
  4  3  1  0  0  0  0
  5  6  1  0  0  0  0
  6  7  1  0  0  0  0
  6  1  1  0  0  0  0
  7 10  2  0  0  0  0
  8  9  2  0  0  0  0
  8  7  1  0  0  0  0
  9 12  1  0  0  0  0
 10 11  1  0  0  0  0
 10 40  1  0  0  0  0
 11 41  1  0  0  0  0
 12 13  1  0  0  0  0
 12 11  2  0  0  0  0
 13 42  1  0  0  0  0
 14 16  1  0  0  0  0
 14 13  1  0  0  0  0
 15 14  2  0  0  0  0
 17 43  1  0  0  0  0
 17 16  2  0  0  0  0
 18 17  1  0  0  0  0
 19 18  2  0  0  0  0
 19 15  1  0  0  0  0
 20 19  1  0  0  0  0
 21 20  1  0  0  0  0
 22 24  1  0  0  0  0
 22 21  1  0  0  0  0
 23 22  2  0  0  0  0
 24 26  1  0  0  0  0
 25 24  1  0  0  0  0
 25 45  1  0  0  0  0
 26 27  1  0  0  0  0
 26 20  2  0  0  0  0
 27 49  1  0  0  0  0
 29  1  1  0  0  0  0
 30  2  1  0  0  0  0
 32  3  1  0  0  0  0
 34  4  1  0  0  0  0
 35  4  1  0  0  0  0
 36  5  1  0  0  0  0
 37  5  1  0  0  0  0
 38  8  1  0  0  0  0
 39  9  1  0  0  0  0
 44 18  1  0  0  0  0
 46 25  1  0  0  0  0
 47 25  1  0  0  0  0
 48 27  1  0  0  0  0
 50 27  1  0  0  0  0
M  CHG  1   3   1
M  END
$$$$
