2p4y_ligand_rnum.pdb
 OpenBabel02151809393D

 61 65  0  0  1  0  0  0  0  0999 V2000
   15.7060    5.0230   15.8040 C   0  0  0  0  0  0  0  0  0  0  0  0
   14.5690    4.8940   15.0080 C   0  0  0  0  0  0  0  0  0  0  0  0
   14.7540    4.8640   13.4680 C   0  0  0  0  0  0  0  0  0  0  0  0
   15.9600    4.9680   12.8790 C   0  0  0  0  0  0  0  0  0  0  0  0
   17.1240    5.1010   13.7060 C   0  0  0  0  0  0  0  0  0  0  0  0
   17.0010    5.1260   15.1730 C   0  0  0  0  0  0  0  0  0  0  0  0
   13.6520    4.7270   12.5630 C   0  0  0  0  0  0  0  0  0  0  0  0
   14.3400    4.7660   11.3250 C   0  0  0  0  0  0  0  0  0  0  0  0
   15.7630    4.9160   11.4830 N   0  0  0  0  0  0  0  0  0  0  0  0
   12.1760    4.5870   12.8970 C   0  0  0  0  0  0  0  0  0  0  0  0
   13.6790    4.6670    9.9520 C   0  0  0  0  0  0  0  0  0  0  0  0
   16.8450    5.0030   10.4580 C   0  0  0  0  0  0  0  0  0  0  0  0
   18.1770    5.2480   15.8840 O   0  0  0  0  0  0  0  0  0  0  0  0
   18.8370    4.1520   16.4650 C   0  0  0  0  0  0  0  0  0  0  0  0
   19.9500    4.6200   16.9880 F   0  0  0  0  0  0  0  0  0  0  0  0
   19.1280    3.2360   15.5240 F   0  0  0  0  0  0  0  0  0  0  0  0
   18.0820    3.6260   17.4220 F   0  0  0  0  0  0  0  0  0  0  0  0
   17.1860    6.4530    9.9960 C   0  0  0  0  0  0  0  0  0  0  0  0
   16.2810    7.5630   10.3110 C   0  0  0  0  0  0  0  0  0  0  0  0
   16.5450    8.9190    9.9100 C   0  0  0  0  0  0  0  0  0  0  0  0
   17.7510    9.1930    9.1630 C   0  0  0  0  0  0  0  0  0  0  0  0
   18.6650    8.1390    8.8330 C   0  0  0  0  0  0  0  0  0  0  0  0
   18.3910    6.7900    9.2440 C   0  0  0  0  0  0  0  0  0  0  0  0
   19.5630    5.6330    8.7920 Cl  0  0  0  0  0  0  0  0  0  0  0  0
   15.5840    9.9040   10.3050 O   0  0  0  0  0  0  0  0  0  0  0  0
   15.1050   10.9540    9.4340 C   0  0  2  0  0  0  0  0  0  0  0  0
   14.1280   11.7970   10.2660 C   0  0  0  0  0  0  0  0  0  0  0  0
   14.2750   10.4740    8.2450 C   0  0  0  0  0  0  0  0  0  0  0  0
   14.1880   11.0690    7.2330 O   0  0  0  0  0  0  0  0  0  0  0  0
   13.6520    9.3050    8.4960 O   0  5  0  0  0  0  0  0  0  0  0  0
   11.0630    5.2530   12.4460 N   0  0  0  0  0  0  0  0  0  0  0  0
    9.9160    4.8200   13.0360 O   0  0  0  0  0  0  0  0  0  0  0  0
   10.2160    3.8320   13.9190 C   0  0  0  0  0  0  0  0  0  0  0  0
   11.6320    3.6550   13.8470 C   0  0  0  0  0  0  0  0  0  0  0  0
    9.3930    3.0830   14.7690 C   0  0  0  0  0  0  0  0  0  0  0  0
    9.9840    2.0600   15.6400 C   0  0  0  0  0  0  0  0  0  0  0  0
   11.3960    1.8370   15.6000 C   0  0  0  0  0  0  0  0  0  0  0  0
   12.2150    2.6010   14.7370 C   0  0  0  0  0  0  0  0  0  0  0  0
    9.1060    1.3610   16.4600 O   0  0  0  0  0  0  0  0  0  0  0  0
    8.3730    2.0540   17.4470 C   0  0  0  0  0  0  0  0  0  0  0  0
   15.5910    4.9190   16.8650 H   0  0  0  0  0  0  0  0  0  0  0  0
   13.5960    4.8080   15.4660 H   0  0  0  0  0  0  0  0  0  0  0  0
   18.1000    5.1790   13.2490 H   0  0  0  0  0  0  0  0  0  0  0  0
   14.0320    5.4670    9.3010 H   0  0  0  0  0  0  0  0  0  0  0  0
   13.9270    3.7110    9.4930 H   0  0  0  0  0  0  0  0  0  0  0  0
   12.5940    4.7430   10.0180 H   0  0  0  0  0  0  0  0  0  0  0  0
   16.5600    4.4050    9.5920 H   0  0  0  0  0  0  0  0  0  0  0  0
   17.7400    4.5570   10.8760 H   0  0  0  0  0  0  0  0  0  0  0  0
   15.3730    7.3800   10.8640 H   0  0  0  0  0  0  0  0  0  0  0  0
   17.9700   10.2030    8.8510 H   0  0  0  0  0  0  0  0  0  0  0  0
   19.5550    8.3570    8.2630 H   0  0  0  0  0  0  0  0  0  0  0  0
   15.9470   11.5610    9.0980 H   0  0  0  0  0  0  0  0  0  0  0  0
   14.0160   12.7860    9.8200 H   0  0  0  0  0  0  0  0  0  0  0  0
   13.1280   11.3710   10.3130 H   0  0  0  0  0  0  0  0  0  0  0  0
   14.5010   11.9510   11.2790 H   0  0  0  0  0  0  0  0  0  0  0  0
    8.3280    3.2640   14.7780 H   0  0  0  0  0  0  0  0  0  0  0  0
   11.8400    1.0880   16.2310 H   0  0  0  0  0  0  0  0  0  0  0  0
   13.2780    2.4120   14.7200 H   0  0  0  0  0  0  0  0  0  0  0  0
    7.6930    1.3390   17.8970 H   0  0  0  0  0  0  0  0  0  0  0  0
    9.0190    2.4090   18.2380 H   0  0  0  0  0  0  0  0  0  0  0  0
    7.7920    2.8850   17.0470 H   0  0  0  0  0  0  0  0  0  0  0  0
  1 41  1  0  0  0  0
  2 42  1  0  0  0  0
  2  1  2  0  0  0  0
  3  2  1  0  0  0  0
  4  3  2  0  0  0  0
  4  5  1  0  0  0  0
  5  6  2  0  0  0  0
  6  1  1  0  0  0  0
  6 13  1  0  0  0  0
  7 10  1  0  0  0  0
  7  3  1  0  0  0  0
  8  9  1  0  0  0  0
  8  7  2  0  0  0  0
  9  4  1  0  0  0  0
 10 34  1  0  0  0  0
 11 46  1  0  0  0  0
 11  8  1  0  0  0  0
 12 48  1  0  0  0  0
 12  9  1  0  0  0  0
 13 14  1  0  0  0  0
 14 15  1  0  0  0  0
 14 17  1  0  0  0  0
 16 14  1  0  0  0  0
 18 19  1  0  0  0  0
 18 12  1  0  0  0  0
 19 49  1  0  0  0  0
 20 25  1  0  0  0  0
 20 19  2  0  0  0  0
 21 20  1  0  0  0  0
 22 21  2  0  0  0  0
 22 23  1  0  0  0  0
 23 18  2  0  0  0  0
 24 23  1  0  0  0  0
 26 52  1  6  0  0  0
 26 27  1  0  0  0  0
 26 25  1  0  0  0  0
 27 54  1  0  0  0  0
 27 55  1  0  0  0  0
 28 30  1  0  0  0  0
 28 26  1  0  0  0  0
 29 28  2  0  0  0  0
 31 10  2  0  0  0  0
 31 32  1  0  0  0  0
 32 33  1  0  0  0  0
 33 35  1  0  0  0  0
 34 33  2  0  0  0  0
 34 38  1  0  0  0  0
 35 56  1  0  0  0  0
 35 36  2  0  0  0  0
 36 39  1  0  0  0  0
 37 36  1  0  0  0  0
 37 57  1  0  0  0  0
 38 37  2  0  0  0  0
 39 40  1  0  0  0  0
 40 59  1  0  0  0  0
 40 60  1  0  0  0  0
 43  5  1  0  0  0  0
 44 11  1  0  0  0  0
 45 11  1  0  0  0  0
 47 12  1  0  0  0  0
 50 21  1  0  0  0  0
 51 22  1  0  0  0  0
 53 27  1  0  0  0  0
 58 38  1  0  0  0  0
 61 40  1  0  0  0  0
M  CHG  1  30  -1
M  END
$$$$
