3pww_ligand_rnum.pdb
 OpenBabel02151809393D

100104  0  0  1  0  0  0  0  0999 V2000
   -3.8230    3.0390    6.5360 C   0  0  0  0  0  0  0  0  0  0  0  0
   -3.4140    3.3890    5.3210 O   0  0  0  0  0  0  0  0  0  0  0  0
   -5.6860    1.5970    5.7010 N   0  0  0  0  0  0  0  0  0  0  0  0
   -4.6260    1.7350    6.5600 C   0  0  0  0  0  0  0  0  0  0  0  0
   -4.3070    0.6970    7.4450 C   0  0  0  0  0  0  0  0  0  0  0  0
   -5.0640   -0.4670    7.4460 C   0  0  0  0  0  0  0  0  0  0  0  0
   -6.9150   -1.7640    6.5690 C   0  0  0  0  0  0  0  0  0  0  0  0
   -7.9870   -1.8750    5.6920 C   0  0  0  0  0  0  0  0  0  0  0  0
   -8.2960   -0.8450    4.8270 C   0  0  0  0  0  0  0  0  0  0  0  0
   -7.5120    0.3330    4.8280 C   0  0  0  0  0  0  0  0  0  0  0  0
   -6.1360   -0.5970    6.5780 C   0  0  0  0  0  0  0  0  0  0  0  0
   -6.4490    0.4400    5.7000 C   0  0  0  0  0  0  0  0  0  0  0  0
   -3.7350    3.5710    7.7830 N   0  0  0  0  0  0  0  0  0  0  0  0
   -3.1770    4.8980    7.8610 C   0  0  2  0  0  0  0  0  0  0  0  0
   -2.2680    5.0170    9.0860 C   0  0  0  0  0  0  0  0  0  0  0  0
   -2.6590    5.9510    9.9580 O   0  0  0  0  0  0  0  0  0  0  0  0
   -4.2870    5.9570    7.8020 C   0  0  0  0  0  0  0  0  0  0  0  0
   -4.8080    6.1730    6.3620 C   0  0  0  0  0  0  0  0  0  0  0  0
   -3.8630    6.6760    5.5290 O   0  0  0  0  0  0  0  0  0  0  0  0
   -6.1180    5.8030    6.2770 N   0  0  0  0  0  0  0  0  0  0  0  0
    0.9120    4.9110   10.0310 C   0  0  1  0  0  0  0  0  0  0  0  0
    1.7150    4.7790   11.1660 O   0  0  0  0  0  0  0  0  0  0  0  0
   -0.3360    4.0370   10.2270 C   0  0  1  0  0  0  0  0  0  0  0  0
   -1.2060    4.1270    9.0320 N   0  0  0  0  0  0  0  0  0  0  0  0
   -0.0480    2.5940   10.6310 C   0  0  0  0  0  0  0  0  0  0  0  0
   -1.3570    1.7950   10.8180 C   0  0  0  0  0  0  0  0  0  0  0  0
   -2.4380    2.3340   11.4900 C   0  0  0  0  0  0  0  0  0  0  0  0
   -1.4490    0.4990   10.3080 C   0  0  0  0  0  0  0  0  0  0  0  0
   -3.6220    1.5790   11.6540 C   0  0  0  0  0  0  0  0  0  0  0  0
   -2.6290   -0.2520   10.4680 C   0  0  0  0  0  0  0  0  0  0  0  0
   -3.7080    0.2910   11.1390 C   0  0  0  0  0  0  0  0  0  0  0  0
    1.6050    7.2440    9.4440 N   0  3  2  0  0  0  0  0  0  0  0  0
    0.5110    6.3500    9.8860 C   0  0  0  0  0  0  0  0  0  0  0  0
    2.6830    7.4200   10.4590 C   0  0  2  0  0  0  0  0  0  0  0  0
    2.2520    7.8100   11.8650 C   0  0  0  0  0  0  0  0  0  0  0  0
    0.9860    8.1400   12.0230 O   0  0  0  0  0  0  0  0  0  0  0  0
    3.7160    8.4030    9.9380 C   0  0  0  0  0  0  0  0  0  0  0  0
    3.1960    9.7200    9.4160 C   0  0  2  0  0  0  0  0  0  0  0  0
    2.7960   10.6620   10.5700 C   0  0  0  0  0  0  0  0  0  0  0  0
    2.2350   11.9500   10.1080 C   0  0  0  0  0  0  0  0  0  0  0  0
    1.0770   11.7350    9.1480 C   0  0  0  0  0  0  0  0  0  0  0  0
    1.4350   10.7860    8.0010 C   0  0  0  0  0  0  0  0  0  0  0  0
    2.0850    9.4930    8.4360 C   0  0  2  0  0  0  0  0  0  0  0  0
    1.0290    8.5180    8.9910 C   0  0  0  0  0  0  0  0  0  0  0  0
    3.3120    7.7420   12.7660 N   0  0  0  0  0  0  0  0  0  0  0  0
    3.1440    8.1630   14.1980 C   0  0  0  0  0  0  0  0  0  0  0  0
    4.4580    7.9090   14.8570 C   0  0  0  0  0  0  0  0  0  0  0  0
    2.0700    7.3580   14.8740 C   0  0  0  0  0  0  0  0  0  0  0  0
    2.8060    9.6380   14.2990 C   0  0  0  0  0  0  0  0  0  0  0  0
   -3.4660    0.7950    8.1150 H   0  0  0  0  0  0  0  0  0  0  0  0
   -4.8110   -1.2680    8.1260 H   0  0  0  0  0  0  0  0  0  0  0  0
   -6.6880   -2.5800    7.2410 H   0  0  0  0  0  0  0  0  0  0  0  0
   -8.5820   -2.7770    5.6860 H   0  0  0  0  0  0  0  0  0  0  0  0
   -9.1320   -0.9400    4.1500 H   0  0  0  0  0  0  0  0  0  0  0  0
   -7.7440    1.1400    4.1490 H   0  0  0  0  0  0  0  0  0  0  0  0
   -4.1460    3.1260    8.5920 H   0  0  0  0  0  0  0  0  0  0  0  0
   -2.4860    5.0800    7.0320 H   0  0  0  0  0  0  0  0  0  0  0  0
   -3.9250    6.9360    8.1210 H   0  0  0  0  0  0  0  0  0  0  0  0
   -5.0900    5.6870    8.4870 H   0  0  0  0  0  0  0  0  0  0  0  0
   -6.6060    5.8830    5.3960 H   0  0  0  0  0  0  0  0  0  0  0  0
   -6.5940    5.4380    7.0900 H   0  0  0  0  0  0  0  0  0  0  0  0
    1.4760    4.5740    9.1590 H   0  0  0  0  0  0  0  0  0  0  0  0
    1.2170    5.0640   11.9180 H   0  0  0  0  0  0  0  0  0  0  0  0
   -0.8520    4.4760   11.0770 H   0  0  0  0  0  0  0  0  0  0  0  0
   -1.0860    3.4770    8.2640 H   0  0  0  0  0  0  0  0  0  0  0  0
    0.4830    2.5680   11.5810 H   0  0  0  0  0  0  0  0  0  0  0  0
    0.5840    2.1050    9.8930 H   0  0  0  0  0  0  0  0  0  0  0  0
   -2.4070    3.3230   11.9160 H   0  0  0  0  0  0  0  0  0  0  0  0
   -0.6120    0.0650    9.7820 H   0  0  0  0  0  0  0  0  0  0  0  0
   -4.4620    2.0050   12.1840 H   0  0  0  0  0  0  0  0  0  0  0  0
   -2.6990   -1.2520   10.0690 H   0  0  0  0  0  0  0  0  0  0  0  0
   -4.6140   -0.2840   11.2640 H   0  0  0  0  0  0  0  0  0  0  0  0
    2.0360    6.8210    8.6280 H   0  0  0  0  0  0  0  0  0  0  0  0
   -0.1310    6.6850   10.6950 H   0  0  0  0  0  0  0  0  0  0  0  0
   -0.1320    6.3990    9.0140 H   0  0  0  0  0  0  0  0  0  0  0  0
    3.2200    6.4800   10.5240 H   0  0  0  0  0  0  0  0  0  0  0  0
    4.2360    7.9120    9.1130 H   0  0  0  0  0  0  0  0  0  0  0  0
    4.4980    8.5870   10.6650 H   0  0  0  0  0  0  0  0  0  0  0  0
    4.0120   10.2180    8.8940 H   0  0  0  0  0  0  0  0  0  0  0  0
    3.6240   10.8290   11.2470 H   0  0  0  0  0  0  0  0  0  0  0  0
    2.0060   10.2440   11.1800 H   0  0  0  0  0  0  0  0  0  0  0  0
    3.0170   12.5230    9.6080 H   0  0  0  0  0  0  0  0  0  0  0  0
    1.9110   12.5500   10.9590 H   0  0  0  0  0  0  0  0  0  0  0  0
    0.7490   12.6940    8.7450 H   0  0  0  0  0  0  0  0  0  0  0  0
    0.2250   11.3350    9.6990 H   0  0  0  0  0  0  0  0  0  0  0  0
    2.1130   11.3040    7.3220 H   0  0  0  0  0  0  0  0  0  0  0  0
    0.5340   10.5760    7.4290 H   0  0  0  0  0  0  0  0  0  0  0  0
    2.4920    9.0170    7.5450 H   0  0  0  0  0  0  0  0  0  0  0  0
    0.4480    8.9890    9.7820 H   0  0  0  0  0  0  0  0  0  0  0  0
    0.3180    8.3210    8.1870 H   0  0  0  0  0  0  0  0  0  0  0  0
    4.2230    7.4300   12.4510 H   0  0  0  0  0  0  0  0  0  0  0  0
    4.4490    8.2110   15.9050 H   0  0  0  0  0  0  0  0  0  0  0  0
    4.7260    6.8540   14.8290 H   0  0  0  0  0  0  0  0  0  0  0  0
    5.2510    8.4670   14.3640 H   0  0  0  0  0  0  0  0  0  0  0  0
    2.0390    7.5620   15.9450 H   0  0  0  0  0  0  0  0  0  0  0  0
    1.0750    7.5760   14.4920 H   0  0  0  0  0  0  0  0  0  0  0  0
    2.2410    6.2880   14.7540 H   0  0  0  0  0  0  0  0  0  0  0  0
    2.7740    9.9670   15.3390 H   0  0  0  0  0  0  0  0  0  0  0  0
    3.5490   10.2510   13.7870 H   0  0  0  0  0  0  0  0  0  0  0  0
    1.8340    9.8710   13.8630 H   0  0  0  0  0  0  0  0  0  0  0  0
  1  4  1  0  0  0  0
  1 13  1  0  0  0  0
  2  1  2  0  0  0  0
  3  4  1  0  0  0  0
  4  5  2  0  0  0  0
  5  6  1  0  0  0  0
  5 50  1  0  0  0  0
  6 51  1  0  0  0  0
  7 11  1  0  0  0  0
  7 52  1  0  0  0  0
  8  7  2  0  0  0  0
  9 10  2  0  0  0  0
  9  8  1  0  0  0  0
 10 12  1  0  0  0  0
 11  6  2  0  0  0  0
 12  3  2  0  0  0  0
 12 11  1  0  0  0  0
 13 14  1  0  0  0  0
 13 56  1  0  0  0  0
 14 57  1  6  0  0  0
 14 15  1  0  0  0  0
 15 16  2  0  0  0  0
 17 14  1  0  0  0  0
 17 58  1  0  0  0  0
 17 59  1  0  0  0  0
 18 17  1  0  0  0  0
 19 18  2  0  0  0  0
 20 18  1  0  0  0  0
 20 61  1  0  0  0  0
 21 62  1  6  0  0  0
 21 23  1  0  0  0  0
 21 22  1  0  0  0  0
 22 63  1  0  0  0  0
 23 25  1  0  0  0  0
 23 64  1  1  0  0  0
 24 15  1  0  0  0  0
 24 23  1  0  0  0  0
 25 26  1  0  0  0  0
 25 66  1  0  0  0  0
 26 27  2  0  0  0  0
 27 29  1  0  0  0  0
 27 68  1  0  0  0  0
 28 30  2  0  0  0  0
 28 26  1  0  0  0  0
 29 70  1  0  0  0  0
 30 31  1  0  0  0  0
 31 72  1  0  0  0  0
 31 29  2  0  0  0  0
 32 33  1  0  0  0  0
 32 34  1  1  0  0  0
 33 21  1  0  0  0  0
 33 74  1  0  0  0  0
 34 76  1  1  0  0  0
 34 35  1  0  0  0  0
 35 36  2  0  0  0  0
 35 45  1  0  0  0  0
 37 34  1  0  0  0  0
 37 78  1  0  0  0  0
 38 43  1  6  0  0  0
 38 37  1  0  0  0  0
 38 39  1  0  0  0  0
 39 81  1  0  0  0  0
 39 80  1  0  0  0  0
 40 39  1  0  0  0  0
 40 83  1  0  0  0  0
 41 85  1  0  0  0  0
 41 40  1  0  0  0  0
 42 43  1  0  0  0  0
 42 41  1  0  0  0  0
 43 88  1  6  0  0  0
 43 44  1  0  0  0  0
 44 32  1  0  0  0  0
 44 89  1  0  0  0  0
 45 46  1  0  0  0  0
 46 49  1  0  0  0  0
 46 47  1  0  0  0  0
 46 48  1  0  0  0  0
 47 92  1  0  0  0  0
 48 95  1  0  0  0  0
 49 98  1  0  0  0  0
 53  8  1  0  0  0  0
 54  9  1  0  0  0  0
 55 10  1  0  0  0  0
 60 20  1  0  0  0  0
 65 24  1  0  0  0  0
 67 25  1  0  0  0  0
 69 28  1  0  0  0  0
 71 30  1  0  0  0  0
 73 32  1  0  0  0  0
 75 33  1  0  0  0  0
 77 37  1  0  0  0  0
 79 38  1  0  0  0  0
 82 40  1  0  0  0  0
 84 41  1  0  0  0  0
 86 42  1  0  0  0  0
 87 42  1  0  0  0  0
 90 44  1  0  0  0  0
 91 45  1  0  0  0  0
 93 47  1  0  0  0  0
 94 47  1  0  0  0  0
 96 48  1  0  0  0  0
 97 48  1  0  0  0  0
 99 49  1  0  0  0  0
100 49  1  0  0  0  0
M  CHG  1  32   1
M  END
$$$$
