3dxg_ligand_rnum.pdb
 OpenBabel02151809393D

 32 33  0  0  1  0  0  0  0  0999 V2000
   36.4310   -2.0220   12.0930 N   0  0  0  0  0  0  0  0  0  0  0  0
   35.2270   -2.2090   11.4130 C   0  0  0  0  0  0  0  0  0  0  0  0
   34.5610   -3.3480   11.5830 N   0  0  0  0  0  0  0  0  0  0  0  0
   35.0030   -4.3250   12.4040 C   0  0  0  0  0  0  0  0  0  0  0  0
   36.2070   -4.1680   13.0920 C   0  0  0  0  0  0  0  0  0  0  0  0
   36.9110   -2.9820   12.9070 C   0  0  0  0  0  0  0  0  0  0  0  0
   34.7830   -1.3140   10.6750 O   0  0  0  0  0  0  0  0  0  0  0  0
   34.3250   -5.3690   12.5290 O   0  0  0  0  0  0  0  0  0  0  0  0
   37.1410   -0.7760   11.8600 C   0  0  1  0  0  0  0  0  0  0  0  0
   36.7510    0.2970   12.8470 C   0  0  2  0  0  0  0  0  0  0  0  0
   36.6010    1.4830   12.0570 O   0  0  0  0  0  0  0  0  0  0  0  0
   37.9640    0.3940   13.7420 C   0  0  1  0  0  0  0  0  0  0  0  0
   39.1090    0.0400   12.8080 C   0  0  2  0  0  0  0  0  0  0  0  0
   38.1200    1.6790   14.3480 O   0  0  0  0  0  0  0  0  0  0  0  0
   38.5510   -0.9850   11.9760 O   0  0  0  0  0  0  0  0  0  0  0  0
   40.3430   -0.4530   13.5540 C   0  0  0  0  0  0  0  0  0  0  0  0
   40.0240   -1.7430   14.0570 O   0  0  0  0  0  0  0  0  0  0  0  0
   41.0170   -2.5700   15.0150 P   0  0  2  0  0  0  0  0  0  0  0  0
   41.4160   -1.5950   16.1050 O   0  0  0  0  0  0  0  0  0  0  0  0
   42.1530   -2.9990   14.1100 O   0  5  0  0  0  0  0  0  0  0  0  0
   40.1370   -3.7160   15.4570 O   0  5  0  0  0  0  0  0  0  0  0  0
   33.7050   -3.5020   11.0590 H   0  0  0  0  0  0  0  0  0  0  0  0
   36.5800   -4.9380   13.7520 H   0  0  0  0  0  0  0  0  0  0  0  0
   37.8380   -2.8470   13.4430 H   0  0  0  0  0  0  0  0  0  0  0  0
   37.0010   -0.5050   10.8100 H   0  0  0  0  0  0  0  0  0  0  0  0
   35.8190    0.0690   13.3470 H   0  0  0  0  0  0  0  0  0  0  0  0
   35.8380    1.3840   11.5080 H   0  0  0  0  0  0  0  0  0  0  0  0
   37.8810   -0.3590   14.5280 H   0  0  0  0  0  0  0  0  0  0  0  0
   39.3600    0.8980   12.1820 H   0  0  0  0  0  0  0  0  0  0  0  0
   38.0730    2.3240   13.6580 H   0  0  0  0  0  0  0  0  0  0  0  0
   40.6260    0.2310   14.3550 H   0  0  0  0  0  0  0  0  0  0  0  0
   41.1910   -0.5420   12.8740 H   0  0  0  0  0  0  0  0  0  0  0  0
  1  6  1  0  0  0  0
  2  3  1  0  0  0  0
  2  1  1  0  0  0  0
  3  4  1  0  0  0  0
  4  8  2  0  0  0  0
  4  5  1  0  0  0  0
  5 23  1  0  0  0  0
  6  5  2  0  0  0  0
  6 24  1  0  0  0  0
  7  2  2  0  0  0  0
  9 15  1  0  0  0  0
  9  1  1  0  0  0  0
  9 10  1  1  0  0  0
 10 26  1  0  0  0  0
 10 12  1  1  0  0  0
 11 10  1  0  0  0  0
 12 13  1  6  0  0  0
 12 14  1  0  0  0  0
 12 28  1  0  0  0  0
 13 29  1  6  0  0  0
 13 16  1  0  0  0  0
 15 13  1  0  0  0  0
 16 17  1  0  0  0  0
 16 31  1  0  0  0  0
 17 18  1  0  0  0  0
 18 20  2  6  0  0  0
 18 21  1  0  0  0  0
 18 19  1  0  0  0  0
 22  3  1  0  0  0  0
 25  9  1  0  0  0  0
 27 11  1  0  0  0  0
 30 14  1  0  0  0  0
 32 16  1  0  0  0  0
M  CHG  2  20  -1  21  -1
M  END
$$$$
