2wbg_ligand_rnum.pdb
 OpenBabel02151809393D

 50 51  0  0  1  0  0  0  0  0999 V2000
    0.8430    7.5450   14.1690 O   0  0  0  0  0  0  0  0  0  0  0  0
    1.6720    6.6330   13.4690 C   0  0  2  0  0  0  0  0  0  0  0  0
    1.0010    6.2190   12.1540 C   0  0  1  0  0  0  0  0  0  0  0  0
    0.6600    7.3350   11.1680 C   0  0  0  0  0  0  0  0  0  0  0  0
    1.0800    6.8220    9.8780 O   0  0  0  0  0  0  0  0  0  0  0  0
    1.8340    5.3450   14.2850 C   0  0  2  0  0  0  0  0  0  0  0  0
    2.3120    5.6540   15.5960 O   0  0  0  0  0  0  0  0  0  0  0  0
    2.8750    4.4130   13.6440 C   0  0  1  0  0  0  0  0  0  0  0  0
    2.8340    3.0940   14.2000 O   0  0  0  0  0  0  0  0  0  0  0  0
    2.7120    4.2930   12.1090 C   0  0  2  0  0  0  0  0  0  0  0  0
    4.0080    4.3370   11.4810 O   0  0  0  0  0  0  0  0  0  0  0  0
    1.9430    5.3590   11.4230 N   0  0  0  0  0  0  0  0  0  0  0  0
    1.9110    5.7430   10.0970 C   0  0  0  0  0  0  0  0  0  0  0  0
    2.5470    5.1310    9.0940 N   0  0  0  0  0  0  0  0  0  0  0  0
    2.3860    5.3470    7.6500 C   0  0  0  0  0  0  0  0  0  0  0  0
    3.5960    6.0670    7.0660 C   0  0  0  0  0  0  0  0  0  0  0  0
    3.5340    6.1340    5.5330 C   0  0  0  0  0  0  0  0  0  0  0  0
    4.7730    6.8200    4.9100 C   0  0  0  0  0  0  0  0  0  0  0  0
    4.5550    6.8210    3.3860 C   0  0  0  0  0  0  0  0  0  0  0  0
    5.5930    7.6750    2.6270 C   0  0  0  0  0  0  0  0  0  0  0  0
    6.9840    7.0190    2.6930 C   0  0  0  0  0  0  0  0  0  0  0  0
    7.9430    7.6770    1.6970 C   0  0  0  0  0  0  0  0  0  0  0  0
    0.8080    8.3620   13.6870 H   0  0  0  0  0  0  0  0  0  0  0  0
    2.6360    7.1120   13.2900 H   0  0  0  0  0  0  0  0  0  0  0  0
    0.0990    5.6530   12.3730 H   0  0  0  0  0  0  0  0  0  0  0  0
    1.2180    8.2350   11.3440 H   0  0  0  0  0  0  0  0  0  0  0  0
   -0.4030    7.5790   11.1780 H   0  0  0  0  0  0  0  0  0  0  0  0
    0.8730    4.8370   14.3860 H   0  0  0  0  0  0  0  0  0  0  0  0
    1.6510    6.1560   16.0560 H   0  0  0  0  0  0  0  0  0  0  0  0
    3.8610    4.8290   13.8530 H   0  0  0  0  0  0  0  0  0  0  0  0
    1.9450    2.7560   14.1400 H   0  0  0  0  0  0  0  0  0  0  0  0
    2.2480    3.3450   11.8400 H   0  0  0  0  0  0  0  0  0  0  0  0
    3.9130    4.7950   10.6560 H   0  0  0  0  0  0  0  0  0  0  0  0
    1.4690    5.8920    7.4380 H   0  0  0  0  0  0  0  0  0  0  0  0
    2.2880    4.3780    7.1630 H   0  0  0  0  0  0  0  0  0  0  0  0
    4.5010    5.5300    7.3530 H   0  0  0  0  0  0  0  0  0  0  0  0
    3.6930    7.0620    7.4960 H   0  0  0  0  0  0  0  0  0  0  0  0
    2.6250    6.6530    5.2330 H   0  0  0  0  0  0  0  0  0  0  0  0
    3.4470    5.1220    5.1360 H   0  0  0  0  0  0  0  0  0  0  0  0
    5.6840    6.2840    5.1770 H   0  0  0  0  0  0  0  0  0  0  0  0
    4.8690    7.8390    5.2860 H   0  0  0  0  0  0  0  0  0  0  0  0
    3.5670    7.2260    3.1620 H   0  0  0  0  0  0  0  0  0  0  0  0
    4.5530    5.7980    3.0080 H   0  0  0  0  0  0  0  0  0  0  0  0
    5.6380    8.6740    3.0630 H   0  0  0  0  0  0  0  0  0  0  0  0
    5.2950    7.8340    1.5940 H   0  0  0  0  0  0  0  0  0  0  0  0
    6.9090    5.9570    2.4540 H   0  0  0  0  0  0  0  0  0  0  0  0
    7.3920    7.0880    3.7020 H   0  0  0  0  0  0  0  0  0  0  0  0
    8.9310    7.2190    1.7500 H   0  0  0  0  0  0  0  0  0  0  0  0
    7.5850    7.5680    0.6720 H   0  0  0  0  0  0  0  0  0  0  0  0
    8.0580    8.7420    1.9030 H   0  0  0  0  0  0  0  0  0  0  0  0
  2  3  1  6  0  0  0
  2  1  1  0  0  0  0
  3 25  1  1  0  0  0
  4 27  1  0  0  0  0
  4 26  1  0  0  0  0
  4  3  1  0  0  0  0
  5 13  1  0  0  0  0
  5  4  1  0  0  0  0
  6  2  1  6  0  0  0
  6 28  1  0  0  0  0
  6  7  1  0  0  0  0
  7 29  1  0  0  0  0
  8 10  1  6  0  0  0
  8 30  1  0  0  0  0
  8  9  1  0  0  0  0
  8  6  1  0  0  0  0
 10 32  1  6  0  0  0
 11 10  1  0  0  0  0
 12 10  1  0  0  0  0
 12  3  1  0  0  0  0
 13 12  1  0  0  0  0
 14 13  2  0  0  0  0
 15 14  1  0  0  0  0
 16 36  1  0  0  0  0
 16 37  1  0  0  0  0
 16 15  1  0  0  0  0
 17 16  1  0  0  0  0
 18 40  1  0  0  0  0
 18 41  1  0  0  0  0
 18 17  1  0  0  0  0
 19 18  1  0  0  0  0
 20 21  1  0  0  0  0
 20 44  1  0  0  0  0
 20 19  1  0  0  0  0
 21 47  1  0  0  0  0
 22 48  1  0  0  0  0
 22 50  1  0  0  0  0
 22 21  1  0  0  0  0
 23  1  1  0  0  0  0
 24  2  1  0  0  0  0
 31  9  1  0  0  0  0
 33 11  1  0  0  0  0
 34 15  1  0  0  0  0
 35 15  1  0  0  0  0
 38 17  1  0  0  0  0
 39 17  1  0  0  0  0
 42 19  1  0  0  0  0
 43 19  1  0  0  0  0
 45 20  1  0  0  0  0
 46 21  1  0  0  0  0
 49 22  1  0  0  0  0
M  END
$$$$
