1zea_ligand_rnum.pdb
 OpenBabel02151809393D

129131  0  0  1  0  0  0  0  0999 V2000
   37.8820   53.4850   93.7850 N   0  3  0  0  0  0  0  0  0  0  0  0
   39.1060   52.8250   94.3190 C   0  0  2  0  0  0  0  0  0  0  0  0
   38.8570   51.3140   94.4940 C   0  0  0  0  0  0  0  0  0  0  0  0
   37.8020   51.0730   95.5620 C   0  0  0  0  0  0  0  0  0  0  0  0
   38.3960   50.7300   93.1560 C   0  0  0  0  0  0  0  0  0  0  0  0
   39.5570   53.5590   95.6040 C   0  0  0  0  0  0  0  0  0  0  0  0
   39.1260   54.6960   95.8310 O   0  0  0  0  0  0  0  0  0  0  0  0
   40.4460   52.9620   96.4400 N   0  0  0  0  0  0  0  0  0  0  0  0
   41.1580   51.6750   96.4300 C   0  0  2  0  0  0  0  0  0  0  0  0
   41.6390   51.5430   97.8680 C   0  0  0  0  0  0  0  0  0  0  0  0
   41.9980   52.9510   98.1900 C   0  0  0  0  0  0  0  0  0  0  0  0
   40.8100   53.7250   97.6500 C   0  0  0  0  0  0  0  0  0  0  0  0
   42.3240   51.7180   95.4450 C   0  0  0  0  0  0  0  0  0  0  0  0
   43.3630   51.0810   95.6430 O   0  0  0  0  0  0  0  0  0  0  0  0
   42.1350   52.4930   94.3860 N   0  0  0  0  0  0  0  0  0  0  0  0
   43.1500   52.6270   93.3700 C   0  0  0  0  0  0  0  0  0  0  0  0
   42.4440   52.7410   92.0440 C   0  0  0  0  0  0  0  0  0  0  0  0
   41.2140   52.7400   91.9860 O   0  0  0  0  0  0  0  0  0  0  0  0
   43.2200   52.8370   90.9760 N   0  0  0  0  0  0  0  0  0  0  0  0
   42.6740   52.9550   89.6430 C   0  0  1  0  0  0  0  0  0  0  0  0
   43.3200   54.1600   88.9860 C   0  0  0  0  0  0  0  0  0  0  0  0
   44.5160   54.3680   89.1140 O   0  0  0  0  0  0  0  0  0  0  0  0
   43.0510   51.7330   88.8120 C   0  0  0  0  0  0  0  0  0  0  0  0
   42.7100   51.9450   87.4520 O   0  0  0  0  0  0  0  0  0  0  0  0
   42.5390   54.9430   88.2640 N   0  0  0  0  0  0  0  0  0  0  0  0
   43.1200   56.0860   87.5790 C   0  0  1  0  0  0  0  0  0  0  0  0
   43.9980   55.6260   86.4180 C   0  0  0  0  0  0  0  0  0  0  0  0
   44.8030   56.4020   85.8940 O   0  0  0  0  0  0  0  0  0  0  0  0
   42.0010   57.0040   87.0710 C   0  0  0  0  0  0  0  0  0  0  0  0
   41.2140   57.6270   88.2500 C   0  0  0  0  0  0  0  0  0  0  0  0
   39.9770   58.4380   87.8250 C   0  0  0  0  0  0  0  0  0  0  0  0
   39.0950   59.0900   88.8480 N   0  0  0  0  0  0  0  0  0  0  0  0
   39.7670   58.5240   86.6260 O   0  0  0  0  0  0  0  0  0  0  0  0
   43.8400   54.3630   86.0190 N   0  0  0  0  0  0  0  0  0  0  0  0
   44.6000   53.8080   84.8780 C   0  0  1  0  0  0  0  0  0  0  0  0
   45.9060   53.1770   85.2650 C   0  0  0  0  0  0  0  0  0  0  0  0
   46.8340   53.1170   84.4460 O   0  0  0  0  0  0  0  0  0  0  0  0
   43.8350   52.6860   84.1730 C   0  0  0  0  0  0  0  0  0  0  0  0
   42.6250   53.1420   83.4150 C   0  0  0  0  0  0  0  0  0  0  0  0
   42.6950   53.6830   82.1460 N   0  0  0  0  0  0  0  0  0  0  0  0
   41.3120   53.1140   83.7450 C   0  0  0  0  0  0  0  0  0  0  0  0
   41.4710   53.9650   81.7230 C   0  0  0  0  0  0  0  0  0  0  0  0
   40.6110   53.6290   82.6770 N   0  0  0  0  0  0  0  0  0  0  0  0
   45.9640   52.6780   86.4950 N   0  0  0  0  0  0  0  0  0  0  0  0
   47.1310   51.9110   86.9290 C   0  0  1  0  0  0  0  0  0  0  0  0
   47.8150   52.4090   88.1960 C   0  0  0  0  0  0  0  0  0  0  0  0
   48.9250   51.9700   88.5100 O   0  0  0  0  0  0  0  0  0  0  0  0
   46.6990   50.4520   87.1080 C   0  0  0  0  0  0  0  0  0  0  0  0
   45.9710   49.9000   85.8920 C   0  0  0  0  0  0  0  0  0  0  0  0
   46.6160   49.7990   84.6550 C   0  0  0  0  0  0  0  0  0  0  0  0
   44.6270   49.5110   85.9740 C   0  0  0  0  0  0  0  0  0  0  0  0
   45.9530   49.3240   83.5110 C   0  0  0  0  0  0  0  0  0  0  0  0
   43.9470   49.0290   84.8410 C   0  0  0  0  0  0  0  0  0  0  0  0
   44.6040   48.9350   83.6230 C   0  0  0  0  0  0  0  0  0  0  0  0
   43.9220   48.4420   82.5330 O   0  0  0  0  0  0  0  0  0  0  0  0
   47.1450   53.3070   88.9160 N   0  0  0  0  0  0  0  0  0  0  0  0
   47.6910   53.8780   90.1550 C   0  0  1  0  0  0  0  0  0  0  0  0
   47.9100   55.3890   90.1030 C   0  0  0  0  0  0  0  0  0  0  0  0
   47.6120   56.0510   89.1000 O   0  0  0  0  0  0  0  0  0  0  0  0
   46.7570   53.5930   91.3330 C   0  0  0  0  0  0  0  0  0  0  0  0
   46.4750   52.1240   91.5070 C   0  0  0  0  0  0  0  0  0  0  0  0
   47.4160   51.3140   91.3580 O   0  0  0  0  0  0  0  0  0  0  0  0
   45.3210   51.7770   91.8080 O   0  5  0  0  0  0  0  0  0  0  0  0
   48.4200   55.8980   91.2260 N   0  0  0  0  0  0  0  0  0  0  0  0
   48.7020   57.3100   91.4910 C   0  0  1  0  0  0  0  0  0  0  0  0
   50.1600   57.6950   91.2850 C   0  0  0  0  0  0  0  0  0  0  0  0
   50.4500   58.4390   90.3260 O   0  0  0  0  0  0  0  0  0  0  0  0
   50.9930   57.2420   92.1040 O   0  5  0  0  0  0  0  0  0  0  0  0
   47.7910   58.2300   90.6690 C   0  0  0  0  0  0  0  0  0  0  0  0
   47.9550   59.5890   91.0560 O   0  0  0  0  0  0  0  0  0  0  0  0
   37.6310   53.0740   92.8970 H   0  0  0  0  0  0  0  0  0  0  0  0
   38.0700   54.4700   93.6580 H   0  0  0  0  0  0  0  0  0  0  0  0
   37.1250   53.3730   94.4440 H   0  0  0  0  0  0  0  0  0  0  0  0
   39.8260   53.0680   93.5920 H   0  0  0  0  0  0  0  0  0  0  0  0
   39.7580   50.7380   94.6100 H   0  0  0  0  0  0  0  0  0  0  0  0
   37.5810   50.0080   95.6390 H   0  0  0  0  0  0  0  0  0  0  0  0
   36.8600   51.5750   95.3420 H   0  0  0  0  0  0  0  0  0  0  0  0
   38.1250   51.3900   96.5530 H   0  0  0  0  0  0  0  0  0  0  0  0
   39.1390   50.8970   92.3750 H   0  0  0  0  0  0  0  0  0  0  0  0
   37.4580   51.1550   92.8140 H   0  0  0  0  0  0  0  0  0  0  0  0
   38.2460   49.6530   93.2310 H   0  0  0  0  0  0  0  0  0  0  0  0
   40.5580   50.7800   96.3460 H   0  0  0  0  0  0  0  0  0  0  0  0
   42.4720   50.8530   98.0060 H   0  0  0  0  0  0  0  0  0  0  0  0
   40.8280   51.2030   98.5160 H   0  0  0  0  0  0  0  0  0  0  0  0
   42.9220   53.2520   97.6940 H   0  0  0  0  0  0  0  0  0  0  0  0
   42.1360   53.1090   99.2600 H   0  0  0  0  0  0  0  0  0  0  0  0
   39.9800   53.7200   98.3590 H   0  0  0  0  0  0  0  0  0  0  0  0
   41.0910   54.7600   97.4450 H   0  0  0  0  0  0  0  0  0  0  0  0
   41.2770   53.0050   94.2650 H   0  0  0  0  0  0  0  0  0  0  0  0
   43.7420   51.7220   93.3890 H   0  0  0  0  0  0  0  0  0  0  0  0
   43.7900   53.4890   93.5600 H   0  0  0  0  0  0  0  0  0  0  0  0
   44.2220   52.7100   91.0960 H   0  0  0  0  0  0  0  0  0  0  0  0
   41.5890   53.0820   89.6240 H   0  0  0  0  0  0  0  0  0  0  0  0
   42.5200   50.8570   89.1830 H   0  0  0  0  0  0  0  0  0  0  0  0
   44.1170   51.5100   88.8810 H   0  0  0  0  0  0  0  0  0  0  0  0
   42.3290   51.1410   87.1120 H   0  0  0  0  0  0  0  0  0  0  0  0
   41.5540   54.7450   88.1620 H   0  0  0  0  0  0  0  0  0  0  0  0
   43.7470   56.6600   88.2660 H   0  0  0  0  0  0  0  0  0  0  0  0
   41.3290   56.4320   86.4280 H   0  0  0  0  0  0  0  0  0  0  0  0
   42.4190   57.7990   86.4550 H   0  0  0  0  0  0  0  0  0  0  0  0
   41.8690   58.2780   88.8290 H   0  0  0  0  0  0  0  0  0  0  0  0
   40.8620   56.8530   88.9320 H   0  0  0  0  0  0  0  0  0  0  0  0
   43.1870   53.7610   86.5040 H   0  0  0  0  0  0  0  0  0  0  0  0
   44.8080   54.5880   84.1420 H   0  0  0  0  0  0  0  0  0  0  0  0
   43.5100   51.9390   84.8970 H   0  0  0  0  0  0  0  0  0  0  0  0
   44.4640   52.1550   83.4540 H   0  0  0  0  0  0  0  0  0  0  0  0
   40.8210   52.7650   84.6410 H   0  0  0  0  0  0  0  0  0  0  0  0
   41.2140   54.3210   80.7400 H   0  0  0  0  0  0  0  0  0  0  0  0
   39.6070   53.7210   82.6210 H   0  0  0  0  0  0  0  0  0  0  0  0
   45.1640   52.7530   87.1070 H   0  0  0  0  0  0  0  0  0  0  0  0
   47.9240   51.9200   86.1800 H   0  0  0  0  0  0  0  0  0  0  0  0
   46.0540   50.3550   87.9830 H   0  0  0  0  0  0  0  0  0  0  0  0
   47.5660   49.8190   87.3020 H   0  0  0  0  0  0  0  0  0  0  0  0
   47.6490   50.1010   84.5700 H   0  0  0  0  0  0  0  0  0  0  0  0
   44.0980   49.6000   86.9100 H   0  0  0  0  0  0  0  0  0  0  0  0
   46.4750   49.2560   82.5680 H   0  0  0  0  0  0  0  0  0  0  0  0
   42.9040   48.7680   84.8870 H   0  0  0  0  0  0  0  0  0  0  0  0
   44.4820   48.3520   81.7690 H   0  0  0  0  0  0  0  0  0  0  0  0
   46.2430   53.6410   88.6040 H   0  0  0  0  0  0  0  0  0  0  0  0
   48.6680   53.4510   90.3920 H   0  0  0  0  0  0  0  0  0  0  0  0
   45.8170   54.1350   91.2390 H   0  0  0  0  0  0  0  0  0  0  0  0
   47.1950   53.9180   92.2780 H   0  0  0  0  0  0  0  0  0  0  0  0
   48.6460   55.2540   91.9700 H   0  0  0  0  0  0  0  0  0  0  0  0
   48.4770   57.4670   92.5470 H   0  0  0  0  0  0  0  0  0  0  0  0
   46.7390   57.9670   90.7920 H   0  0  0  0  0  0  0  0  0  0  0  0
   48.0210   58.2530   89.6050 H   0  0  0  0  0  0  0  0  0  0  0  0
   48.8550   59.8250   90.8740 H   0  0  0  0  0  0  0  0  0  0  0  0
   38.2690   59.5920   88.5420 H   0  0  0  0  0  0  0  0  0  0  0  0
   39.3010   59.0170   89.8340 H   0  0  0  0  0  0  0  0  0  0  0  0
  1  2  1  0  0  0  0
  1 73  1  0  0  0  0
  2 74  1  6  0  0  0
  2  3  1  0  0  0  0
  2  6  1  0  0  0  0
  3 75  1  0  0  0  0
  3  4  1  0  0  0  0
  4 76  1  0  0  0  0
  4 78  1  0  0  0  0
  5 81  1  0  0  0  0
  5  3  1  0  0  0  0
  6  7  2  0  0  0  0
  6  8  1  0  0  0  0
  8 12  1  0  0  0  0
  9 82  1  6  0  0  0
  9  8  1  0  0  0  0
  9 10  1  0  0  0  0
 10 83  1  0  0  0  0
 10 11  1  0  0  0  0
 10 84  1  0  0  0  0
 11 86  1  0  0  0  0
 12 11  1  0  0  0  0
 12 87  1  0  0  0  0
 13 14  2  0  0  0  0
 13  9  1  0  0  0  0
 15 13  1  0  0  0  0
 16 90  1  0  0  0  0
 16 91  1  0  0  0  0
 16 15  1  0  0  0  0
 17 16  1  0  0  0  0
 18 17  2  0  0  0  0
 19 92  1  0  0  0  0
 19 17  1  0  0  0  0
 20 93  1  1  0  0  0
 20 19  1  0  0  0  0
 21 22  2  0  0  0  0
 21 20  1  0  0  0  0
 23 95  1  0  0  0  0
 23 94  1  0  0  0  0
 23 20  1  0  0  0  0
 24 23  1  0  0  0  0
 25 21  1  0  0  0  0
 26 25  1  0  0  0  0
 26 98  1  1  0  0  0
 27 26  1  0  0  0  0
 28 27  2  0  0  0  0
 29 26  1  0  0  0  0
 29 30  1  0  0  0  0
 30101  1  0  0  0  0
 30102  1  0  0  0  0
 31 30  1  0  0  0  0
 31 32  1  0  0  0  0
 32129  1  0  0  0  0
 33 31  2  0  0  0  0
 34 27  1  0  0  0  0
 34103  1  0  0  0  0
 35104  1  6  0  0  0
 35 36  1  0  0  0  0
 35 34  1  0  0  0  0
 36 44  1  0  0  0  0
 37 36  2  0  0  0  0
 38 35  1  0  0  0  0
 38105  1  0  0  0  0
 39 41  2  0  0  0  0
 39 38  1  0  0  0  0
 40 39  1  0  0  0  0
 41107  1  0  0  0  0
 42 40  2  0  0  0  0
 42 43  1  0  0  0  0
 43 41  1  0  0  0  0
 44 45  1  0  0  0  0
 44110  1  0  0  0  0
 45111  1  6  0  0  0
 45 48  1  0  0  0  0
 45 46  1  0  0  0  0
 46 47  2  0  0  0  0
 46 56  1  0  0  0  0
 48113  1  0  0  0  0
 48112  1  0  0  0  0
 49 51  1  0  0  0  0
 49 48  1  0  0  0  0
 50 49  2  0  0  0  0
 51115  1  0  0  0  0
 52 54  2  0  0  0  0
 52 50  1  0  0  0  0
 53117  1  0  0  0  0
 53 51  2  0  0  0  0
 54 53  1  0  0  0  0
 55 54  1  0  0  0  0
 56 57  1  0  0  0  0
 57120  1  1  0  0  0
 57 60  1  0  0  0  0
 58 57  1  0  0  0  0
 58 64  1  0  0  0  0
 59 58  2  0  0  0  0
 60 61  1  0  0  0  0
 60122  1  0  0  0  0
 61 63  1  0  0  0  0
 62 61  2  0  0  0  0
 64 65  1  0  0  0  0
 64123  1  0  0  0  0
 65124  1  1  0  0  0
 66 65  1  0  0  0  0
 66 68  1  0  0  0  0
 67 66  2  0  0  0  0
 69125  1  0  0  0  0
 69 70  1  0  0  0  0
 69 65  1  0  0  0  0
 71  1  1  0  0  0  0
 72  1  1  0  0  0  0
 77  4  1  0  0  0  0
 79  5  1  0  0  0  0
 80  5  1  0  0  0  0
 85 11  1  0  0  0  0
 88 12  1  0  0  0  0
 89 15  1  0  0  0  0
 96 24  1  0  0  0  0
 97 25  1  0  0  0  0
 99 29  1  0  0  0  0
100 29  1  0  0  0  0
106 38  1  0  0  0  0
108 42  1  0  0  0  0
109 43  1  0  0  0  0
114 50  1  0  0  0  0
116 52  1  0  0  0  0
118 55  1  0  0  0  0
119 56  1  0  0  0  0
121 60  1  0  0  0  0
126 69  1  0  0  0  0
127 70  1  0  0  0  0
128 32  1  0  0  0  0
M  CHG  3   1   1  63  -1  68  -1
M  END
$$$$
