4de2_ligand_rnum.pdb
 OpenBabel02151809393D

 42 44  0  0  0  0  0  0  0  0999 V2000
   -9.2570   55.8220   13.5960 O   0  0  0  0  0  0  0  0  0  0  0  0
   -8.8590   55.9810   12.4460 C   0  0  0  0  0  0  0  0  0  0  0  0
   -9.6340   56.8840   11.5140 C   0  0  0  0  0  0  0  0  0  0  0  0
   -9.2810   56.9990   10.1710 C   0  0  0  0  0  0  0  0  0  0  0  0
   -9.9640   57.9060    9.3610 C   0  0  0  0  0  0  0  0  0  0  0  0
  -11.0130   58.6660    9.8650 C   0  0  0  0  0  0  0  0  0  0  0  0
  -11.2930   58.6230   11.2310 C   0  0  0  0  0  0  0  0  0  0  0  0
  -12.4100   59.4660   11.8250 C   0  0  0  0  0  0  0  0  0  0  0  0
  -13.6880   58.9840   11.2650 N   0  3  0  0  0  0  0  0  0  0  0  0
  -13.9840   57.6630   11.8460 C   0  0  0  0  0  0  0  0  0  0  0  0
  -14.7930   59.9020   11.5810 C   0  0  0  0  0  0  0  0  0  0  0  0
  -10.6200   57.7150   12.0380 C   0  0  0  0  0  0  0  0  0  0  0  0
   -7.7600   55.3740   11.9800 N   0  0  0  0  0  0  0  0  0  0  0  0
   -6.9040   54.5610   12.7580 C   0  0  0  0  0  0  0  0  0  0  0  0
   -5.5580   54.5190   12.4080 C   0  0  0  0  0  0  0  0  0  0  0  0
   -4.6570   53.7620   13.1500 C   0  0  0  0  0  0  0  0  0  0  0  0
   -5.0900   53.0350   14.2540 C   0  0  0  0  0  0  0  0  0  0  0  0
   -6.4250   53.0920   14.6240 C   0  0  0  0  0  0  0  0  0  0  0  0
   -7.3410   53.8320   13.8640 C   0  0  0  0  0  0  0  0  0  0  0  0
   -3.2280   53.7180   12.7620 C   0  0  0  0  0  0  0  0  0  0  0  0
   -2.7510   53.9830   11.5290 N   0  0  0  0  0  0  0  0  0  0  0  0
   -1.3720   53.8130   11.5380 N   0  0  0  0  0  0  0  0  0  0  0  0
   -1.0230   53.4450   12.8380 N   0  0  0  0  0  0  0  0  0  0  0  0
   -2.2040   53.3760   13.5800 N   0  5  0  0  0  0  0  0  0  0  0  0
   -8.4890   56.4080    9.7350 H   0  0  0  0  0  0  0  0  0  0  0  0
   -9.7020   57.9830    8.3160 H   0  0  0  0  0  0  0  0  0  0  0  0
  -11.5590   59.3350    9.2190 H   0  0  0  0  0  0  0  0  0  0  0  0
  -12.2400   60.5060   11.5400 H   0  0  0  0  0  0  0  0  0  0  0  0
  -12.4180   59.4290   12.9140 H   0  0  0  0  0  0  0  0  0  0  0  0
  -13.6020   58.9040   10.2610 H   0  0  0  0  0  0  0  0  0  0  0  0
  -14.9570   57.3080   11.5030 H   0  0  0  0  0  0  0  0  0  0  0  0
  -13.2600   56.9070   11.5420 H   0  0  0  0  0  0  0  0  0  0  0  0
  -14.0100   57.6930   12.9360 H   0  0  0  0  0  0  0  0  0  0  0  0
  -15.7320   59.5410   11.1590 H   0  0  0  0  0  0  0  0  0  0  0  0
  -14.9220   60.0170   12.6590 H   0  0  0  0  0  0  0  0  0  0  0  0
  -14.6010   60.8880   11.1560 H   0  0  0  0  0  0  0  0  0  0  0  0
  -10.8190   57.6940   13.0880 H   0  0  0  0  0  0  0  0  0  0  0  0
   -7.4420   55.6180   11.0540 H   0  0  0  0  0  0  0  0  0  0  0  0
   -5.2160   55.0940   11.5620 H   0  0  0  0  0  0  0  0  0  0  0  0
   -4.4070   52.4360   14.8320 H   0  0  0  0  0  0  0  0  0  0  0  0
   -6.7620   52.5410   15.4880 H   0  0  0  0  0  0  0  0  0  0  0  0
   -8.3780   53.7590   14.1460 H   0  0  0  0  0  0  0  0  0  0  0  0
  2  1  2  0  0  0  0
  3 12  1  0  0  0  0
  3  2  1  0  0  0  0
  4  3  2  0  0  0  0
  5  6  2  0  0  0  0
  5  4  1  0  0  0  0
  6  7  1  0  0  0  0
  7  8  1  0  0  0  0
  7 12  2  0  0  0  0
  8 29  1  0  0  0  0
  9 11  1  0  0  0  0
  9  8  1  0  0  0  0
  9 10  1  0  0  0  0
 10 33  1  0  0  0  0
 11 35  1  0  0  0  0
 12 37  1  0  0  0  0
 13  2  1  0  0  0  0
 13 14  1  0  0  0  0
 14 19  1  0  0  0  0
 15 14  2  0  0  0  0
 15 16  1  0  0  0  0
 16 17  2  0  0  0  0
 17 18  1  0  0  0  0
 17 40  1  0  0  0  0
 18 41  1  0  0  0  0
 19 42  1  0  0  0  0
 19 18  2  0  0  0  0
 20 16  1  0  0  0  0
 20 24  1  0  0  0  0
 21 22  1  0  0  0  0
 21 20  2  0  0  0  0
 22 23  1  0  0  0  0
 23 24  2  0  0  0  0
 25  4  1  0  0  0  0
 26  5  1  0  0  0  0
 27  6  1  0  0  0  0
 28  8  1  0  0  0  0
 30  9  1  0  0  0  0
 31 10  1  0  0  0  0
 32 10  1  0  0  0  0
 34 11  1  0  0  0  0
 36 11  1  0  0  0  0
 38 13  1  0  0  0  0
 39 15  1  0  0  0  0
M  CHG  2   9   1  24  -1
M  END
$$$$
