1q8t_ligand_rnum.pdb
 OpenBabel02151809393D

 40 41  0  0  1  0  0  0  0  0999 V2000
    7.5670    9.6490    1.6590 O   0  0  0  0  0  0  0  0  0  0  0  0
    7.9850    9.4820    2.8080 C   0  0  0  0  0  0  0  0  0  0  0  0
    9.3900    9.0330    3.1220 C   0  0  1  0  0  0  0  0  0  0  0  0
    9.8020    7.9260    2.1470 C   0  0  0  0  0  0  0  0  0  0  0  0
   11.1770    7.3720    2.5330 C   0  0  0  0  0  0  0  0  0  0  0  0
   12.1910    8.5000    2.3070 C   0  0  1  0  0  0  0  0  0  0  0  0
   11.8850    9.6720    3.2770 C   0  0  0  0  0  0  0  0  0  0  0  0
   10.4100   10.1890    3.1380 C   0  0  0  0  0  0  0  0  0  0  0  0
   13.6350    7.9160    2.3770 C   0  0  1  0  0  0  0  0  0  0  0  0
   14.0090    7.2340    1.0480 C   0  0  0  0  0  0  0  0  0  0  0  0
   14.6510    8.9840    2.6880 N   0  3  0  0  0  0  0  0  0  0  0  0
    7.1750    9.6680    3.9630 N   0  0  0  0  0  0  0  0  0  0  0  0
    5.7350    9.7420    4.0100 C   0  0  0  0  0  0  0  0  0  0  0  0
    5.1650    9.6930    5.2930 C   0  0  0  0  0  0  0  0  0  0  0  0
    3.7700    9.7460    5.3480 C   0  0  0  0  0  0  0  0  0  0  0  0
    3.0100    9.8540    4.2380 N   0  0  0  0  0  0  0  0  0  0  0  0
    3.5410    9.9010    3.0060 C   0  0  0  0  0  0  0  0  0  0  0  0
    4.9180    9.8440    2.8470 C   0  0  0  0  0  0  0  0  0  0  0  0
    9.3830    8.5930    4.1210 H   0  0  0  0  0  0  0  0  0  0  0  0
    9.7870    8.2590    1.1080 H   0  0  0  0  0  0  0  0  0  0  0  0
    9.0960    7.1060    2.2410 H   0  0  0  0  0  0  0  0  0  0  0  0
   11.3820    6.5120    1.9080 H   0  0  0  0  0  0  0  0  0  0  0  0
   11.1910    7.0250    3.5670 H   0  0  0  0  0  0  0  0  0  0  0  0
   12.0580    8.8960    1.2980 H   0  0  0  0  0  0  0  0  0  0  0  0
   12.5590   10.5120    3.1060 H   0  0  0  0  0  0  0  0  0  0  0  0
   12.0520    9.3440    4.3040 H   0  0  0  0  0  0  0  0  0  0  0  0
   10.1800   10.9060    3.9270 H   0  0  0  0  0  0  0  0  0  0  0  0
   10.3490   10.7250    2.1930 H   0  0  0  0  0  0  0  0  0  0  0  0
   13.6800    7.1850    3.1860 H   0  0  0  0  0  0  0  0  0  0  0  0
   14.6980    6.4040    1.2040 H   0  0  0  0  0  0  0  0  0  0  0  0
   13.1310    6.8680    0.5400 H   0  0  0  0  0  0  0  0  0  0  0  0
   14.4940    7.9360    0.3690 H   0  0  0  0  0  0  0  0  0  0  0  0
   15.5670    8.5680    2.7710 H   0  0  0  0  0  0  0  0  0  0  0  0
   14.6580    9.6660    1.9430 H   0  0  0  0  0  0  0  0  0  0  0  0
   14.4130    9.4490    3.5540 H   0  0  0  0  0  0  0  0  0  0  0  0
    7.6360    9.5610    4.8550 H   0  0  0  0  0  0  0  0  0  0  0  0
    5.7650    9.6290    6.1860 H   0  0  0  0  0  0  0  0  0  0  0  0
    3.2500    9.7260    6.2930 H   0  0  0  0  0  0  0  0  0  0  0  0
    2.8750    9.9810    2.1610 H   0  0  0  0  0  0  0  0  0  0  0  0
    5.2950    9.8890    1.8400 H   0  0  0  0  0  0  0  0  0  0  0  0
  1  2  2  0  0  0  0
  2  3  1  0  0  0  0
  2 12  1  0  0  0  0
  3  8  1  0  0  0  0
  3 19  1  1  0  0  0
  4 21  1  0  0  0  0
  4  5  1  0  0  0  0
  4  3  1  0  0  0  0
  5 23  1  0  0  0  0
  6 24  1  6  0  0  0
  6  9  1  0  0  0  0
  6  5  1  0  0  0  0
  6  7  1  0  0  0  0
  7 26  1  0  0  0  0
  8  7  1  0  0  0  0
  8 27  1  0  0  0  0
  9 11  1  0  0  0  0
  9 29  1  1  0  0  0
 10 30  1  0  0  0  0
 10  9  1  0  0  0  0
 11 33  1  0  0  0  0
 11 35  1  0  0  0  0
 12 13  1  0  0  0  0
 12 36  1  0  0  0  0
 13 14  2  0  0  0  0
 14 15  1  0  0  0  0
 14 37  1  0  0  0  0
 15 38  1  0  0  0  0
 16 15  2  0  0  0  0
 17 16  1  0  0  0  0
 18 17  2  0  0  0  0
 18 13  1  0  0  0  0
 20  4  1  0  0  0  0
 22  5  1  0  0  0  0
 25  7  1  0  0  0  0
 28  8  1  0  0  0  0
 31 10  1  0  0  0  0
 32 10  1  0  0  0  0
 34 11  1  0  0  0  0
 39 17  1  0  0  0  0
 40 18  1  0  0  0  0
M  CHG  1  11   1
M  END
$$$$
